88137
Actelion Java MolfileCreator 1.0

 34 38  0  0  0  0  0  0  0  0999 V2000
    0.0000   -0.0000   -0.0000 O   0  0  0  0  0  0  0  0  0  0  0  0
   -1.3048   -0.7473   -0.0000 C   0  0  0  0  0  0  0  0  0  0  0  0
   -1.3167   -2.2300   -0.0000 N   0  0  0  0  0  0  0  0  0  0  0  0
   -2.6214    0.0119   -0.0000 C   0  0  0  0  0  0  0  0  0  0  0  0
   -2.6096   -2.9654   -0.0000 C   0  0  0  0  0  0  0  0  0  0  0  0
   -0.0237   -2.9654   -0.0000 C   0  0  0  0  0  0  0  0  0  0  0  0
   -3.9144   -0.7473   -0.0000 C   0  0  0  0  0  0  0  0  0  0  0  0
   -2.6333    1.5183   -0.0000 C   0  0  0  0  0  0  0  0  0  0  0  0
   -2.6214   -4.4481   -0.0000 C   0  0  0  0  0  0  0  0  0  0  0  0
   -3.9262   -2.2063   -0.0000 C   0  0  0  0  0  0  0  0  0  0  0  0
    1.2573   -2.1944   -0.0000 C   0  0  0  0  0  0  0  0  0  0  0  0
   -0.0237   -4.4600   -0.0000 C   0  0  0  0  0  0  0  0  0  0  0  0
   -5.2192    0.0119   -0.0000 C   0  0  0  0  0  0  0  0  0  0  0  0
   -3.9381    2.2656   -0.0000 C   0  0  0  0  0  0  0  0  0  0  0  0
   -3.9381   -5.1954   -0.0000 C   0  0  0  0  0  0  0  0  0  0  0  0
   -1.3285   -5.1836   -0.0000 C   0  0  0  0  0  0  0  0  0  0  0  0
   -5.2310   -2.9536   -0.0000 C   0  0  0  0  0  0  0  0  0  0  0  0
    2.5384   -2.9298   -0.0000 C   0  0  0  0  0  0  0  0  0  0  0  0
    1.2336   -0.6998   -0.0000 C   0  0  0  0  0  0  0  0  0  0  0  0
   -5.2547    1.5183   -0.0000 C   0  0  0  0  0  0  0  0  0  0  0  0
   -5.2429   -4.4363   -0.0000 C   0  0  0  0  0  0  0  0  0  0  0  0
    3.8195   -2.1707   -0.0000 C   0  0  0  0  0  0  0  0  0  0  0  0
    2.5028    0.0712   -0.0000 C   0  0  0  0  0  0  0  0  0  0  0  0
   -6.5595    2.2656   -0.0000 O   0  0  0  0  0  0  0  0  0  0  0  0
   -6.5477   -5.1717   -0.0000 O   0  0  0  0  0  0  0  0  0  0  0  0
    3.7957   -0.6643   -0.0000 C   0  0  0  0  0  0  0  0  0  0  0  0
   -7.8643    1.5183   -0.0000 C   0  0  0  0  0  0  0  0  0  0  0  0
   -9.1810    2.2774   -0.0000 C   0  0  0  0  0  0  0  0  0  0  0  0
  -10.4739    1.5302   -0.0000 N   0  0  0  0  0  0  0  0  0  0  0  0
  -10.4858    0.0474   -0.0000 C   0  0  0  0  0  0  0  0  0  0  0  0
  -11.8024    2.2893   -0.0000 C   0  0  0  0  0  0  0  0  0  0  0  0
  -11.8024   -0.6998   -0.0000 C   0  0  0  0  0  0  0  0  0  0  0  0
  -13.1072    1.5539   -0.0000 C   0  0  0  0  0  0  0  0  0  0  0  0
  -13.1191    0.0593   -0.0000 C   0  0  0  0  0  0  0  0  0  0  0  0
  1  2  2  0  0  0  0
  2  3  1  0  0  0  0
  2  4  1  0  0  0  0
  3  5  1  0  0  0  0
  3  6  1  0  0  0  0
  4  7  2  0  0  0  0
  4  8  1  0  0  0  0
  5  9  2  0  0  0  0
  5 10  1  0  0  0  0
  6 11  1  0  0  0  0
  6 12  1  0  0  0  0
  7 13  1  0  0  0  0
  8 14  2  0  0  0  0
  9 15  1  0  0  0  0
  9 16  1  0  0  0  0
 10 17  2  0  0  0  0
 11 18  2  0  0  0  0
 11 19  1  0  0  0  0
 13 20  2  0  0  0  0
 15 21  2  0  0  0  0
 18 22  1  0  0  0  0
 19 23  2  0  0  0  0
 20 24  1  0  0  0  0
 21 25  1  0  0  0  0
 22 26  2  0  0  0  0
 24 27  1  0  0  0  0
 27 28  1  0  0  0  0
 28 29  1  0  0  0  0
 29 30  1  0  0  0  0
 29 31  1  0  0  0  0
 30 32  1  0  0  0  0
 31 33  1  0  0  0  0
 32 34  1  0  0  0  0
 12 16  1  0  0  0  0
 14 20  1  0  0  0  0
 17 21  1  0  0  0  0
 23 26  1  0  0  0  0
 33 34  1  0  0  0  0
M  END
>  <MolRegNo>
88137

>  <m>
=

>  <Value>
29

>  <Unit>
nM

>  <Type>
Ki

>  <pValue>
7.54

>  <Ligand Efficiency>
0.3

>  <Binding Efficiency>
16.51

>  <Surface Efficiency>
14.22

>  <Assay Index>
67394

>  <Assay Category>


>  <Assay Organism>
Homo sapiens

>  <Target ID>
19

>  <Target Name>
Estrogen receptor alpha

>  <Target Organism>
Homo sapiens

>  <Target Description>
Target is a single protein chain

>  <Sequence Accession>
P03372

>  <Reference>
Bioorg Med Chem Lett 13 (11), 1907-1910 (2003)

>  <Pubmed ID>
12749895

>  <DOI>
10.1016/s0960-894x(03)00306-8

$$$$
87114
Actelion Java MolfileCreator 1.0

 33 37  0  0  0  0  0  0  0  0999 V2000
    0.0000   -0.0000   -0.0000 O   0  0  0  0  0  0  0  0  0  0  0  0
    1.3112   -0.7442   -0.0000 C   0  0  0  0  0  0  0  0  0  0  0  0
   -1.3112   -0.7442   -0.0000 C   0  0  0  0  0  0  0  0  0  0  0  0
    1.2994   -2.2326   -0.0000 C   0  0  0  0  0  0  0  0  0  0  0  0
    2.6225    0.0118   -0.0000 C   0  0  0  0  0  0  0  0  0  0  0  0
   -2.6343    0.0118   -0.0000 C   0  0  0  0  0  0  0  0  0  0  0  0
    2.5988   -2.9650   -0.0000 C   0  0  0  0  0  0  0  0  0  0  0  0
    3.9101   -0.7324   -0.0000 C   0  0  0  0  0  0  0  0  0  0  0  0
   -3.9455   -0.7324   -0.0000 N   0  0  0  0  0  0  0  0  0  0  0  0
    3.8864   -2.2090   -0.0000 C   0  0  0  0  0  0  0  0  0  0  0  0
   -3.9573   -2.2208   -0.0000 C   0  0  0  0  0  0  0  0  0  0  0  0
   -5.2567    0.0236   -0.0000 C   0  0  0  0  0  0  0  0  0  0  0  0
    5.1741   -2.9414   -0.0000 C   0  0  0  0  0  0  0  0  0  0  0  0
   -5.2686   -2.9532   -0.0000 C   0  0  0  0  0  0  0  0  0  0  0  0
   -6.5680   -0.7206   -0.0000 C   0  0  0  0  0  0  0  0  0  0  0  0
    5.1622   -4.4298   -0.0000 N   0  0  0  0  0  0  0  0  0  0  0  0
   -6.5798   -2.1972   -0.0000 C   0  0  0  0  0  0  0  0  0  0  0  0
    3.8510   -5.1741   -0.0000 C   0  0  0  0  0  0  0  0  0  0  0  0
    6.4617   -5.1741   -0.0000 C   0  0  0  0  0  0  0  0  0  0  0  0
    3.8392   -6.6625   -0.0000 C   0  0  0  0  0  0  0  0  0  0  0  0
    2.5398   -4.4180   -0.0000 C   0  0  0  0  0  0  0  0  0  0  0  0
    7.7493   -4.4180   -0.0000 C   0  0  0  0  0  0  0  0  0  0  0  0
    6.4499   -6.6625   -0.0000 C   0  0  0  0  0  0  0  0  0  0  0  0
    2.5280   -7.4067   -0.0000 C   0  0  0  0  0  0  0  0  0  0  0  0
    5.1268   -7.4067   -0.0000 C   0  0  0  0  0  0  0  0  0  0  0  0
    1.2285   -5.1741   -0.0000 C   0  0  0  0  0  0  0  0  0  0  0  0
    7.7375   -2.9060   -0.0000 C   0  0  0  0  0  0  0  0  0  0  0  0
    9.0369   -5.1622   -0.0000 C   0  0  0  0  0  0  0  0  0  0  0  0
    1.2167   -6.6507   -0.0000 C   0  0  0  0  0  0  0  0  0  0  0  0
    9.0251   -2.1500   -0.0000 C   0  0  0  0  0  0  0  0  0  0  0  0
   10.3245   -4.4062   -0.0000 C   0  0  0  0  0  0  0  0  0  0  0  0
   -0.1181   -7.4067   -0.0000 O   0  0  0  0  0  0  0  0  0  0  0  0
   10.3127   -2.8824   -0.0000 C   0  0  0  0  0  0  0  0  0  0  0  0
  1  2  1  0  0  0  0
  1  3  1  0  0  0  0
  2  4  2  0  0  0  0
  2  5  1  0  0  0  0
  3  6  1  0  0  0  0
  4  7  1  0  0  0  0
  5  8  2  0  0  0  0
  6  9  1  0  0  0  0
  7 10  2  0  0  0  0
  9 11  1  0  0  0  0
  9 12  1  0  0  0  0
 10 13  1  0  0  0  0
 11 14  1  0  0  0  0
 12 15  1  0  0  0  0
 13 16  1  0  0  0  0
 14 17  1  0  0  0  0
 16 18  1  0  0  0  0
 16 19  1  0  0  0  0
 18 20  2  0  0  0  0
 18 21  1  0  0  0  0
 19 22  1  0  0  0  0
 19 23  1  0  0  0  0
 20 24  1  0  0  0  0
 20 25  1  0  0  0  0
 21 26  2  0  0  0  0
 22 27  2  0  0  0  0
 22 28  1  0  0  0  0
 24 29  2  0  0  0  0
 27 30  1  0  0  0  0
 28 31  2  0  0  0  0
 29 32  1  0  0  0  0
 30 33  2  0  0  0  0
  8 10  1  0  0  0  0
 15 17  1  0  0  0  0
 23 25  1  0  0  0  0
 26 29  1  0  0  0  0
 31 33  1  0  0  0  0
M  END
>  <MolRegNo>
87114

>  <m>
=

>  <Value>
1.7

>  <Unit>
nM

>  <Type>
Ki

>  <pValue>
8.77

>  <Ligand Efficiency>
0.36

>  <Binding Efficiency>
19.81

>  <Surface Efficiency>
24.4

>  <Assay Index>
67394

>  <Assay Category>


>  <Assay Organism>
Homo sapiens

>  <Target ID>
19

>  <Target Name>
Estrogen receptor alpha

>  <Target Organism>
Homo sapiens

>  <Target Description>
Target is a single protein chain

>  <Sequence Accession>
P03372

>  <Reference>
Bioorg Med Chem Lett 13 (11), 1907-1910 (2003)

>  <Pubmed ID>
12749895

>  <DOI>
10.1016/s0960-894x(03)00306-8

$$$$
87157
Actelion Java MolfileCreator 1.0

 18 20  0  0  0  0  0  0  0  0999 V2000
    0.0000   -0.0000   -0.0000 O   0  0  0  0  0  0  0  0  0  0  0  0
    1.2889    0.7568   -0.0000 C   0  0  0  0  0  0  0  0  0  0  0  0
    2.5778    0.0118   -0.0000 C   0  0  0  0  0  0  0  0  0  0  0  0
    1.2771    2.2704   -0.0000 C   0  0  0  0  0  0  0  0  0  0  0  0
    3.8786    0.7686   -0.0000 C   0  0  0  0  0  0  0  0  0  0  0  0
    2.5660    3.0272   -0.0000 C   0  0  0  0  0  0  0  0  0  0  0  0
    3.8668    2.2822   -0.0000 C   0  0  0  0  0  0  0  0  0  0  0  0
    5.1675    0.0236   -0.0000 C   0  0  0  0  0  0  0  0  0  0  0  0
    5.1320    3.0508   -0.0000 N   0  0  0  0  0  0  0  0  0  0  0  0
    6.4564    0.7923   -0.0000 C   0  0  0  0  0  0  0  0  0  0  0  0
    6.4328    2.3295   -0.0000 C   0  0  0  0  0  0  0  0  0  0  0  0
    7.7217    3.0863   -0.0000 C   0  0  0  0  0  0  0  0  0  0  0  0
    9.0106    2.3413   -0.0000 C   0  0  0  0  0  0  0  0  0  0  0  0
    7.6981    4.5999   -0.0000 C   0  0  0  0  0  0  0  0  0  0  0  0
   10.2996    3.1100   -0.0000 C   0  0  0  0  0  0  0  0  0  0  0  0
    8.9752    5.3567   -0.0000 C   0  0  0  0  0  0  0  0  0  0  0  0
   10.2759    4.6236   -0.0000 C   0  0  0  0  0  0  0  0  0  0  0  0
   11.5648    5.4040   -0.0000 O   0  0  0  0  0  0  0  0  0  0  0  0
  1  2  1  0  0  0  0
  2  3  2  0  0  0  0
  2  4  1  0  0  0  0
  3  5  1  0  0  0  0
  4  6  2  0  0  0  0
  5  7  2  0  0  0  0
  5  8  1  0  0  0  0
  7  9  1  0  0  0  0
  8 10  1  0  0  0  0
  9 11  1  0  0  0  0
 11 12  1  0  0  0  0
 12 13  2  0  0  0  0
 12 14  1  0  0  0  0
 13 15  1  0  0  0  0
 14 16  2  0  0  0  0
 15 17  2  0  0  0  0
 17 18  1  0  0  0  0
  6  7  1  0  0  0  0
 10 11  1  0  0  0  0
 16 17  1  0  0  0  0
M  END
>  <MolRegNo>
87157

>  <m>
=

>  <Value>
170

>  <Unit>
nM

>  <Type>
Ki

>  <pValue>
6.77

>  <Ligand Efficiency>
0.51

>  <Binding Efficiency>
28.06

>  <Surface Efficiency>
12.9

>  <Assay Index>
67394

>  <Assay Category>


>  <Assay Organism>
Homo sapiens

>  <Target ID>
19

>  <Target Name>
Estrogen receptor alpha

>  <Target Organism>
Homo sapiens

>  <Target Description>
Target is a single protein chain

>  <Sequence Accession>
P03372

>  <Reference>
Bioorg Med Chem Lett 13 (11), 1907-1910 (2003)

>  <Pubmed ID>
12749895

>  <DOI>
10.1016/s0960-894x(03)00306-8

$$$$
88166
Actelion Java MolfileCreator 1.0

 33 37  0  0  0  0  0  0  0  0999 V2000
    0.0000   -0.0000   -0.0000 O   0  0  0  0  0  0  0  0  0  0  0  0
    1.3097   -0.7433   -0.0000 C   0  0  0  0  0  0  0  0  0  0  0  0
   -1.3097   -0.7433   -0.0000 C   0  0  0  0  0  0  0  0  0  0  0  0
    1.2979   -2.2300   -0.0000 C   0  0  0  0  0  0  0  0  0  0  0  0
    2.6193    0.0118   -0.0000 C   0  0  0  0  0  0  0  0  0  0  0  0
   -2.6311    0.0118   -0.0000 C   0  0  0  0  0  0  0  0  0  0  0  0
    2.5957   -2.9615   -0.0000 C   0  0  0  0  0  0  0  0  0  0  0  0
    3.9054   -0.7315   -0.0000 C   0  0  0  0  0  0  0  0  0  0  0  0
   -3.9408   -0.7315   -0.0000 N   0  0  0  0  0  0  0  0  0  0  0  0
    3.8818   -2.2064   -0.0000 C   0  0  0  0  0  0  0  0  0  0  0  0
   -5.3330   -0.0826   -0.0000 C   0  0  0  0  0  0  0  0  0  0  0  0
   -4.1177   -2.2064   -0.0000 C   0  0  0  0  0  0  0  0  0  0  0  0
    5.1678   -2.9379   -0.0000 C   0  0  0  0  0  0  0  0  0  0  0  0
   -6.3713   -1.2035   -0.0000 C   0  0  0  0  0  0  0  0  0  0  0  0
   -5.6044   -2.5013   -0.0000 C   0  0  0  0  0  0  0  0  0  0  0  0
    5.1560   -4.4245   -0.0000 N   0  0  0  0  0  0  0  0  0  0  0  0
    3.8464   -5.1678   -0.0000 C   0  0  0  0  0  0  0  0  0  0  0  0
    6.4539   -5.1678   -0.0000 C   0  0  0  0  0  0  0  0  0  0  0  0
    3.8346   -6.6545   -0.0000 C   0  0  0  0  0  0  0  0  0  0  0  0
    2.5367   -4.4127   -0.0000 C   0  0  0  0  0  0  0  0  0  0  0  0
    7.7399   -4.4127   -0.0000 C   0  0  0  0  0  0  0  0  0  0  0  0
    6.4421   -6.6545   -0.0000 C   0  0  0  0  0  0  0  0  0  0  0  0
    2.5249   -7.3978   -0.0000 C   0  0  0  0  0  0  0  0  0  0  0  0
    5.1206   -7.3978   -0.0000 C   0  0  0  0  0  0  0  0  0  0  0  0
    1.2271   -5.1678   -0.0000 C   0  0  0  0  0  0  0  0  0  0  0  0
    9.0260   -5.1560   -0.0000 C   0  0  0  0  0  0  0  0  0  0  0  0
    7.7281   -2.9025   -0.0000 C   0  0  0  0  0  0  0  0  0  0  0  0
    1.2153   -6.6427   -0.0000 C   0  0  0  0  0  0  0  0  0  0  0  0
   10.3121   -4.4009   -0.0000 C   0  0  0  0  0  0  0  0  0  0  0  0
    9.0142   -2.1474   -0.0000 C   0  0  0  0  0  0  0  0  0  0  0  0
   -0.1180   -7.3978   -0.0000 O   0  0  0  0  0  0  0  0  0  0  0  0
   10.3003   -2.8907   -0.0000 C   0  0  0  0  0  0  0  0  0  0  0  0
   11.5863   -2.1356   -0.0000 O   0  0  0  0  0  0  0  0  0  0  0  0
  1  2  1  0  0  0  0
  1  3  1  0  0  0  0
  2  4  2  0  0  0  0
  2  5  1  0  0  0  0
  3  6  1  0  0  0  0
  4  7  1  0  0  0  0
  5  8  2  0  0  0  0
  6  9  1  0  0  0  0
  7 10  2  0  0  0  0
  9 11  1  0  0  0  0
  9 12  1  0  0  0  0
 10 13  1  0  0  0  0
 11 14  1  0  0  0  0
 12 15  1  0  0  0  0
 13 16  1  0  0  0  0
 16 17  1  0  0  0  0
 16 18  1  0  0  0  0
 17 19  2  0  0  0  0
 17 20  1  0  0  0  0
 18 21  1  0  0  0  0
 18 22  1  0  0  0  0
 19 23  1  0  0  0  0
 19 24  1  0  0  0  0
 20 25  2  0  0  0  0
 21 26  2  0  0  0  0
 21 27  1  0  0  0  0
 23 28  2  0  0  0  0
 26 29  1  0  0  0  0
 27 30  2  0  0  0  0
 28 31  1  0  0  0  0
 29 32  2  0  0  0  0
 32 33  1  0  0  0  0
  8 10  1  0  0  0  0
 14 15  1  0  0  0  0
 22 24  1  0  0  0  0
 25 28  1  0  0  0  0
 30 32  1  0  0  0  0
M  END
>  <MolRegNo>
88166

>  <m>
=

>  <Value>
1.1

>  <Unit>
nM

>  <Type>
Ki

>  <pValue>
8.96

>  <Ligand Efficiency>
0.37

>  <Binding Efficiency>
20.15

>  <Surface Efficiency>
15.95

>  <Assay Index>
67394

>  <Assay Category>


>  <Assay Organism>
Homo sapiens

>  <Target ID>
19

>  <Target Name>
Estrogen receptor alpha

>  <Target Organism>
Homo sapiens

>  <Target Description>
Target is a single protein chain

>  <Sequence Accession>
P03372

>  <Reference>
Bioorg Med Chem Lett 13 (11), 1907-1910 (2003)

>  <Pubmed ID>
12749895

>  <DOI>
10.1016/s0960-894x(03)00306-8

$$$$
87113
Actelion Java MolfileCreator 1.0

 34 38  0  0  0  0  0  0  0  0999 V2000
    0.0000   -0.0000   -0.0000 O   0  0  0  0  0  0  0  0  0  0  0  0
    1.2977   -0.7381   -0.0000 C   0  0  0  0  0  0  0  0  0  0  0  0
   -1.3096   -0.7381   -0.0000 C   0  0  0  0  0  0  0  0  0  0  0  0
    1.2858   -2.2382   -0.0000 C   0  0  0  0  0  0  0  0  0  0  0  0
    2.5953    0.0238   -0.0000 C   0  0  0  0  0  0  0  0  0  0  0  0
   -2.6310    0.0238   -0.0000 C   0  0  0  0  0  0  0  0  0  0  0  0
    2.5834   -2.9763   -0.0000 C   0  0  0  0  0  0  0  0  0  0  0  0
    3.8811   -0.7143   -0.0000 C   0  0  0  0  0  0  0  0  0  0  0  0
   -3.9406   -0.7143   -0.0000 N   0  0  0  0  0  0  0  0  0  0  0  0
    3.8692   -2.2144   -0.0000 C   0  0  0  0  0  0  0  0  0  0  0  0
   -5.2502    0.0476   -0.0000 C   0  0  0  0  0  0  0  0  0  0  0  0
   -3.9525   -2.2144   -0.0000 C   0  0  0  0  0  0  0  0  0  0  0  0
    5.1550   -2.9525   -0.0000 C   0  0  0  0  0  0  0  0  0  0  0  0
   -6.5598   -0.6905   -0.0000 C   0  0  0  0  0  0  0  0  0  0  0  0
   -5.2621   -2.9525   -0.0000 C   0  0  0  0  0  0  0  0  0  0  0  0
    5.1430   -4.4406   -0.0000 N   0  0  0  0  0  0  0  0  0  0  0  0
   -6.5717   -2.1906   -0.0000 C   0  0  0  0  0  0  0  0  0  0  0  0
    3.8335   -5.1788   -0.0000 C   0  0  0  0  0  0  0  0  0  0  0  0
    6.4407   -5.1788   -0.0000 C   0  0  0  0  0  0  0  0  0  0  0  0
    3.8216   -6.6669   -0.0000 C   0  0  0  0  0  0  0  0  0  0  0  0
    2.5239   -4.4168   -0.0000 C   0  0  0  0  0  0  0  0  0  0  0  0
    7.7265   -4.4168   -0.0000 C   0  0  0  0  0  0  0  0  0  0  0  0
    6.4288   -6.6669   -0.0000 C   0  0  0  0  0  0  0  0  0  0  0  0
    2.5120   -7.4050   -0.0000 C   0  0  0  0  0  0  0  0  0  0  0  0
    5.1073   -7.4050   -0.0000 C   0  0  0  0  0  0  0  0  0  0  0  0
    1.2143   -5.1550   -0.0000 C   0  0  0  0  0  0  0  0  0  0  0  0
    9.0122   -5.1550   -0.0000 C   0  0  0  0  0  0  0  0  0  0  0  0
    7.7146   -2.8930   -0.0000 C   0  0  0  0  0  0  0  0  0  0  0  0
    1.2024   -6.6431   -0.0000 C   0  0  0  0  0  0  0  0  0  0  0  0
   10.2980   -4.3930   -0.0000 C   0  0  0  0  0  0  0  0  0  0  0  0
    9.0003   -2.1310   -0.0000 C   0  0  0  0  0  0  0  0  0  0  0  0
   -0.1191   -7.3931   -0.0000 O   0  0  0  0  0  0  0  0  0  0  0  0
   11.5838   -5.1311   -0.0000 O   0  0  0  0  0  0  0  0  0  0  0  0
   10.2861   -2.8692   -0.0000 C   0  0  0  0  0  0  0  0  0  0  0  0
  1  2  1  0  0  0  0
  1  3  1  0  0  0  0
  2  4  2  0  0  0  0
  2  5  1  0  0  0  0
  3  6  1  0  0  0  0
  4  7  1  0  0  0  0
  5  8  2  0  0  0  0
  6  9  1  0  0  0  0
  7 10  2  0  0  0  0
  9 11  1  0  0  0  0
  9 12  1  0  0  0  0
 10 13  1  0  0  0  0
 11 14  1  0  0  0  0
 12 15  1  0  0  0  0
 13 16  1  0  0  0  0
 14 17  1  0  0  0  0
 16 18  1  0  0  0  0
 16 19  1  0  0  0  0
 18 20  2  0  0  0  0
 18 21  1  0  0  0  0
 19 22  1  0  0  0  0
 19 23  1  0  0  0  0
 20 24  1  0  0  0  0
 20 25  1  0  0  0  0
 21 26  2  0  0  0  0
 22 27  2  0  0  0  0
 22 28  1  0  0  0  0
 24 29  2  0  0  0  0
 27 30  1  0  0  0  0
 28 31  2  0  0  0  0
 29 32  1  0  0  0  0
 30 33  1  0  0  0  0
 30 34  2  0  0  0  0
  8 10  1  0  0  0  0
 15 17  1  0  0  0  0
 23 25  1  0  0  0  0
 26 29  1  0  0  0  0
 31 34  1  0  0  0  0
M  END
>  <MolRegNo>
87113

>  <m>
=

>  <Value>
0.6

>  <Unit>
nM

>  <Type>
Ki

>  <pValue>
9.22

>  <Ligand Efficiency>
0.37

>  <Binding Efficiency>
20.11

>  <Surface Efficiency>
16.42

>  <Assay Index>
67394

>  <Assay Category>


>  <Assay Organism>
Homo sapiens

>  <Target ID>
19

>  <Target Name>
Estrogen receptor alpha

>  <Target Organism>
Homo sapiens

>  <Target Description>
Target is a single protein chain

>  <Sequence Accession>
P03372

>  <Reference>
Bioorg Med Chem Lett 13 (11), 1907-1910 (2003)

>  <Pubmed ID>
12749895

>  <DOI>
10.1016/s0960-894x(03)00306-8

$$$$
88113
Actelion Java MolfileCreator 1.0

 35 39  0  0  0  0  0  0  0  0999 V2000
    0.0000   -0.0000   -0.0000 O   0  0  0  0  0  0  0  0  0  0  0  0
   -1.3087   -0.7310   -0.0000 C   0  0  0  0  0  0  0  0  0  0  0  0
   -1.3205   -2.2165   -0.0000 N   0  0  0  0  0  0  0  0  0  0  0  0
   -2.6291    0.0236   -0.0000 C   0  0  0  0  0  0  0  0  0  0  0  0
   -2.6291   -2.9475   -0.0000 C   0  0  0  0  0  0  0  0  0  0  0  0
   -0.0354   -2.9475   -0.0000 C   0  0  0  0  0  0  0  0  0  0  0  0
   -3.9378   -0.7074   -0.0000 C   0  0  0  0  0  0  0  0  0  0  0  0
   -2.6409    1.5327   -0.0000 C   0  0  0  0  0  0  0  0  0  0  0  0
   -2.6409   -4.4330   -0.0000 C   0  0  0  0  0  0  0  0  0  0  0  0
   -3.9378   -2.1929   -0.0000 C   0  0  0  0  0  0  0  0  0  0  0  0
    1.2497   -2.1929   -0.0000 C   0  0  0  0  0  0  0  0  0  0  0  0
   -0.0472   -4.4330   -0.0000 C   0  0  0  0  0  0  0  0  0  0  0  0
   -5.2465    0.0472   -0.0000 C   0  0  0  0  0  0  0  0  0  0  0  0
   -3.9496    2.2872   -0.0000 C   0  0  0  0  0  0  0  0  0  0  0  0
   -3.9496   -5.1640   -0.0000 C   0  0  0  0  0  0  0  0  0  0  0  0
   -1.3558   -5.1640   -0.0000 C   0  0  0  0  0  0  0  0  0  0  0  0
   -5.2583   -2.9475   -0.0000 C   0  0  0  0  0  0  0  0  0  0  0  0
    2.5348   -2.9239   -0.0000 C   0  0  0  0  0  0  0  0  0  0  0  0
    1.2379   -0.6838   -0.0000 C   0  0  0  0  0  0  0  0  0  0  0  0
   -5.2583    1.5563   -0.0000 C   0  0  0  0  0  0  0  0  0  0  0  0
   -5.2701   -4.4094   -0.0000 C   0  0  0  0  0  0  0  0  0  0  0  0
    3.8317   -2.1693   -0.0000 C   0  0  0  0  0  0  0  0  0  0  0  0
    2.5230    0.0707   -0.0000 C   0  0  0  0  0  0  0  0  0  0  0  0
   -6.5905    2.3108   -0.0000 O   0  0  0  0  0  0  0  0  0  0  0  0
   -6.5787   -5.1640   -0.0000 O   0  0  0  0  0  0  0  0  0  0  0  0
    3.8199   -0.6602   -0.0000 C   0  0  0  0  0  0  0  0  0  0  0  0
   -7.9110    1.5798   -0.0000 C   0  0  0  0  0  0  0  0  0  0  0  0
    5.1050    0.0943   -0.0000 O   0  0  0  0  0  0  0  0  0  0  0  0
   -9.2197    2.3344   -0.0000 C   0  0  0  0  0  0  0  0  0  0  0  0
  -10.5401    1.6034   -0.0000 N   0  0  0  0  0  0  0  0  0  0  0  0
  -11.8488    2.3580   -0.0000 C   0  0  0  0  0  0  0  0  0  0  0  0
  -10.5519    0.1179   -0.0000 C   0  0  0  0  0  0  0  0  0  0  0  0
  -13.1575    1.6270   -0.0000 C   0  0  0  0  0  0  0  0  0  0  0  0
  -11.8370   -0.6131   -0.0000 C   0  0  0  0  0  0  0  0  0  0  0  0
  -13.1693    0.1415   -0.0000 C   0  0  0  0  0  0  0  0  0  0  0  0
  1  2  2  0  0  0  0
  2  3  1  0  0  0  0
  2  4  1  0  0  0  0
  3  5  1  0  0  0  0
  3  6  1  0  0  0  0
  4  7  2  0  0  0  0
  4  8  1  0  0  0  0
  5  9  2  0  0  0  0
  5 10  1  0  0  0  0
  6 11  1  0  0  0  0
  6 12  1  0  0  0  0
  7 13  1  0  0  0  0
  8 14  2  0  0  0  0
  9 15  1  0  0  0  0
  9 16  1  0  0  0  0
 10 17  2  0  0  0  0
 11 18  2  0  0  0  0
 11 19  1  0  0  0  0
 13 20  2  0  0  0  0
 15 21  2  0  0  0  0
 18 22  1  0  0  0  0
 19 23  2  0  0  0  0
 20 24  1  0  0  0  0
 21 25  1  0  0  0  0
 22 26  2  0  0  0  0
 24 27  1  0  0  0  0
 26 28  1  0  0  0  0
 27 29  1  0  0  0  0
 29 30  1  0  0  0  0
 30 31  1  0  0  0  0
 30 32  1  0  0  0  0
 31 33  1  0  0  0  0
 32 34  1  0  0  0  0
 33 35  1  0  0  0  0
 12 16  1  0  0  0  0
 14 20  1  0  0  0  0
 17 21  1  0  0  0  0
 23 26  1  0  0  0  0
 34 35  1  0  0  0  0
M  END
>  <MolRegNo>
88113

>  <m>
=

>  <Value>
88

>  <Unit>
nM

>  <Type>
Ki

>  <pValue>
7.06

>  <Ligand Efficiency>
0.28

>  <Binding Efficiency>
14.93

>  <Surface Efficiency>
9.63

>  <Assay Index>
67394

>  <Assay Category>


>  <Assay Organism>
Homo sapiens

>  <Target ID>
19

>  <Target Name>
Estrogen receptor alpha

>  <Target Organism>
Homo sapiens

>  <Target Description>
Target is a single protein chain

>  <Sequence Accession>
P03372

>  <Reference>
Bioorg Med Chem Lett 13 (11), 1907-1910 (2003)

>  <Pubmed ID>
12749895

>  <DOI>
10.1016/s0960-894x(03)00306-8

$$$$
88165
Actelion Java MolfileCreator 1.0

 32 36  0  0  0  0  0  0  0  0999 V2000
    0.0000   -0.0000   -0.0000 O   0  0  0  0  0  0  0  0  0  0  0  0
   -0.0118   -1.4927   -0.0000 C   0  0  0  0  0  0  0  0  0  0  0  0
    1.2913    0.7701   -0.0000 C   0  0  0  0  0  0  0  0  0  0  0  0
   -1.3387   -2.2273   -0.0000 C   0  0  0  0  0  0  0  0  0  0  0  0
    1.2795   -2.2273   -0.0000 C   0  0  0  0  0  0  0  0  0  0  0  0
    2.5827    0.0355   -0.0000 C   0  0  0  0  0  0  0  0  0  0  0  0
   -1.3387   -3.7200   -0.0000 C   0  0  0  0  0  0  0  0  0  0  0  0
    1.2676   -3.7200   -0.0000 C   0  0  0  0  0  0  0  0  0  0  0  0
    3.8740    0.7938   -0.0000 N   0  0  0  0  0  0  0  0  0  0  0  0
   -0.0474   -4.4427   -0.0000 C   0  0  0  0  0  0  0  0  0  0  0  0
    4.0162    2.2983   -0.0000 C   0  0  0  0  0  0  0  0  0  0  0  0
    5.2246    0.2014   -0.0000 C   0  0  0  0  0  0  0  0  0  0  0  0
   -0.0592   -5.9354   -0.0000 N   0  0  0  0  0  0  0  0  0  0  0  0
    5.4734    2.6301   -0.0000 C   0  0  0  0  0  0  0  0  0  0  0  0
    6.2197    1.3269   -0.0000 C   0  0  0  0  0  0  0  0  0  0  0  0
   -1.3743   -6.6818   -0.0000 C   0  0  0  0  0  0  0  0  0  0  0  0
    1.2321   -6.6818   -0.0000 C   0  0  0  0  0  0  0  0  0  0  0  0
   -1.3861   -8.1745   -0.0000 C   0  0  0  0  0  0  0  0  0  0  0  0
   -2.6893   -5.9236   -0.0000 C   0  0  0  0  0  0  0  0  0  0  0  0
    2.5234   -5.9236   -0.0000 C   0  0  0  0  0  0  0  0  0  0  0  0
    1.2203   -8.1745   -0.0000 C   0  0  0  0  0  0  0  0  0  0  0  0
   -2.7011   -8.9090   -0.0000 C   0  0  0  0  0  0  0  0  0  0  0  0
   -0.0948   -8.9090   -0.0000 C   0  0  0  0  0  0  0  0  0  0  0  0
   -4.0162   -6.6818   -0.0000 C   0  0  0  0  0  0  0  0  0  0  0  0
    3.8148   -6.6699   -0.0000 C   0  0  0  0  0  0  0  0  0  0  0  0
    2.5116   -4.4071   -0.0000 C   0  0  0  0  0  0  0  0  0  0  0  0
   -4.0280   -8.1508   -0.0000 C   0  0  0  0  0  0  0  0  0  0  0  0
    5.1179   -5.9117   -0.0000 C   0  0  0  0  0  0  0  0  0  0  0  0
    3.8029   -3.6489   -0.0000 C   0  0  0  0  0  0  0  0  0  0  0  0
   -5.3430   -8.9090   -0.0000 O   0  0  0  0  0  0  0  0  0  0  0  0
    5.1061   -4.3953   -0.0000 C   0  0  0  0  0  0  0  0  0  0  0  0
    6.3974   -3.6371   -0.0000 O   0  0  0  0  0  0  0  0  0  0  0  0
  1  2  1  0  0  0  0
  1  3  1  0  0  0  0
  2  4  2  0  0  0  0
  2  5  1  0  0  0  0
  3  6  1  0  0  0  0
  4  7  1  0  0  0  0
  5  8  2  0  0  0  0
  6  9  1  0  0  0  0
  7 10  2  0  0  0  0
  9 11  1  0  0  0  0
  9 12  1  0  0  0  0
 10 13  1  0  0  0  0
 11 14  1  0  0  0  0
 12 15  1  0  0  0  0
 13 16  1  0  0  0  0
 13 17  1  0  0  0  0
 16 18  2  0  0  0  0
 16 19  1  0  0  0  0
 17 20  1  0  0  0  0
 17 21  1  0  0  0  0
 18 22  1  0  0  0  0
 18 23  1  0  0  0  0
 19 24  2  0  0  0  0
 20 25  2  0  0  0  0
 20 26  1  0  0  0  0
 22 27  2  0  0  0  0
 25 28  1  0  0  0  0
 26 29  2  0  0  0  0
 27 30  1  0  0  0  0
 28 31  2  0  0  0  0
 31 32  1  0  0  0  0
  8 10  1  0  0  0  0
 14 15  1  0  0  0  0
 21 23  1  0  0  0  0
 24 27  1  0  0  0  0
 29 31  1  0  0  0  0
M  END
>  <MolRegNo>
88165

>  <m>
=

>  <Value>
0.9

>  <Unit>
nM

>  <Type>
Ki

>  <pValue>
9.05

>  <Ligand Efficiency>
0.39

>  <Binding Efficiency>
21.01

>  <Surface Efficiency>
16.1

>  <Assay Index>
67394

>  <Assay Category>


>  <Assay Organism>
Homo sapiens

>  <Target ID>
19

>  <Target Name>
Estrogen receptor alpha

>  <Target Organism>
Homo sapiens

>  <Target Description>
Target is a single protein chain

>  <Sequence Accession>
P03372

>  <Reference>
Bioorg Med Chem Lett 13 (11), 1907-1910 (2003)

>  <Pubmed ID>
12749895

>  <DOI>
10.1016/s0960-894x(03)00306-8

$$$$
88112
Actelion Java MolfileCreator 1.0

 18 20  0  0  0  0  0  0  0  0999 V2000
    0.0000   -0.0000   -0.0000 O   0  0  0  0  0  0  0  0  0  0  0  0
    1.2983    0.7623   -0.0000 C   0  0  0  0  0  0  0  0  0  0  0  0
    2.5846    0.0238   -0.0000 C   0  0  0  0  0  0  0  0  0  0  0  0
    1.2863    2.2868   -0.0000 C   0  0  0  0  0  0  0  0  0  0  0  0
    3.8709    0.7980   -0.0000 C   0  0  0  0  0  0  0  0  0  0  0  0
    2.5727    3.0491   -0.0000 C   0  0  0  0  0  0  0  0  0  0  0  0
    3.8590    2.3107   -0.0000 C   0  0  0  0  0  0  0  0  0  0  0  0
    5.1692    0.0596   -0.0000 C   0  0  0  0  0  0  0  0  0  0  0  0
    5.1454    3.0848   -0.0000 N   0  0  0  0  0  0  0  0  0  0  0  0
    6.4555    0.8337   -0.0000 C   0  0  0  0  0  0  0  0  0  0  0  0
    6.4317    2.3464   -0.0000 C   0  0  0  0  0  0  0  0  0  0  0  0
    7.7181    3.1206   -0.0000 C   0  0  0  0  0  0  0  0  0  0  0  0
    9.0044    2.3821   -0.0000 C   0  0  0  0  0  0  0  0  0  0  0  0
    7.6942    4.6332   -0.0000 C   0  0  0  0  0  0  0  0  0  0  0  0
   10.2907    3.1563   -0.0000 C   0  0  0  0  0  0  0  0  0  0  0  0
    8.9687    5.4074   -0.0000 C   0  0  0  0  0  0  0  0  0  0  0  0
   10.2788    4.6689   -0.0000 C   0  0  0  0  0  0  0  0  0  0  0  0
   11.5652    5.4312   -0.0000 O   0  0  0  0  0  0  0  0  0  0  0  0
  1  2  1  0  0  0  0
  2  3  2  0  0  0  0
  2  4  1  0  0  0  0
  3  5  1  0  0  0  0
  4  6  2  0  0  0  0
  5  7  1  0  0  0  0
  5  8  2  0  0  0  0
  7  9  2  0  0  0  0
  8 10  1  0  0  0  0
  9 11  1  0  0  0  0
 11 12  1  0  0  0  0
 12 13  2  0  0  0  0
 12 14  1  0  0  0  0
 13 15  1  0  0  0  0
 14 16  2  0  0  0  0
 15 17  2  0  0  0  0
 17 18  1  0  0  0  0
  6  7  1  0  0  0  0
 10 11  2  0  0  0  0
 16 17  1  0  0  0  0
M  END
>  <MolRegNo>
88112

>  <m>
=

>  <Value>
310

>  <Unit>
nM

>  <Type>
Ki

>  <pValue>
6.51

>  <Ligand Efficiency>
0.49

>  <Binding Efficiency>
27.43

>  <Surface Efficiency>
12.2

>  <Assay Index>
67394

>  <Assay Category>


>  <Assay Organism>
Homo sapiens

>  <Target ID>
19

>  <Target Name>
Estrogen receptor alpha

>  <Target Organism>
Homo sapiens

>  <Target Description>
Target is a single protein chain

>  <Sequence Accession>
P03372

>  <Reference>
Bioorg Med Chem Lett 13 (11), 1907-1910 (2003)

>  <Pubmed ID>
12749895

>  <DOI>
10.1016/s0960-894x(03)00306-8

$$$$
1408997
Actelion Java MolfileCreator 1.0

 29 31  0  0  0  0  0  0  0  0999 V2000
    0.0000   -0.0000   -0.0000 O   0  0  0  0  0  0  0  0  0  0  0  0
   -1.3121   -0.7329   -0.0000 C   0  0  0  0  0  0  0  0  0  0  0  0
    1.2884   -0.7329   -0.0000 C   0  0  0  0  0  0  0  0  0  0  0  0
   -2.6242    0.0236   -0.0000 C   0  0  0  0  0  0  0  0  0  0  0  0
   -1.3239   -2.2223   -0.0000 C   0  0  0  0  0  0  0  0  0  0  0  0
    2.5769    0.0236   -0.0000 C   0  0  0  0  0  0  0  0  0  0  0  0
   -3.9362   -0.7092   -0.0000 C   0  0  0  0  0  0  0  0  0  0  0  0
   -2.6360   -2.9670   -0.0000 C   0  0  0  0  0  0  0  0  0  0  0  0
    3.8653   -0.7092   -0.0000 N   0  0  0  0  0  0  0  0  0  0  0  0
   -3.9481   -2.1986   -0.0000 C   0  0  0  0  0  0  0  0  0  0  0  0
    5.1538    0.0473   -0.0000 C   0  0  0  0  0  0  0  0  0  0  0  0
    3.8535   -2.1986   -0.0000 C   0  0  0  0  0  0  0  0  0  0  0  0
   -5.2601   -2.9433   -0.0000 C   0  0  0  0  0  0  0  0  0  0  0  0
   -5.2720   -4.4327   -0.0000 C   0  0  0  0  0  0  0  0  0  0  0  0
   -6.5722   -2.1868   -0.0000 C   0  0  0  0  0  0  0  0  0  0  0  0
   -3.9835   -5.1774   -0.0000 C   0  0  0  0  0  0  0  0  0  0  0  0
   -6.5840   -5.1774   -0.0000 C   0  0  0  0  0  0  0  0  0  0  0  0
   -6.5840   -0.6738   -0.0000 C   0  0  0  0  0  0  0  0  0  0  0  0
   -7.8843   -2.9315   -0.0000 C   0  0  0  0  0  0  0  0  0  0  0  0
   -3.9953   -6.6668   -0.0000 C   0  0  0  0  0  0  0  0  0  0  0  0
   -6.5959   -6.6668   -0.0000 C   0  0  0  0  0  0  0  0  0  0  0  0
   -7.8961    0.0827   -0.0000 C   0  0  0  0  0  0  0  0  0  0  0  0
   -5.2956    0.0827   -0.0000 C   0  0  0  0  0  0  0  0  0  0  0  0
   -7.8961   -4.4209   -0.0000 C   0  0  0  0  0  0  0  0  0  0  0  0
   -5.3074   -7.4115   -0.0000 C   0  0  0  0  0  0  0  0  0  0  0  0
   -7.9079    1.5958   -0.0000 C   0  0  0  0  0  0  0  0  0  0  0  0
   -5.3074    1.5958   -0.0000 C   0  0  0  0  0  0  0  0  0  0  0  0
   -5.3192   -8.9009   -0.0000 O   0  0  0  0  0  0  0  0  0  0  0  0
   -6.6195    2.3523   -0.0000 C   0  0  0  0  0  0  0  0  0  0  0  0
  1  2  1  0  0  0  0
  1  3  1  0  0  0  0
  2  4  2  0  0  0  0
  2  5  1  0  0  0  0
  3  6  1  0  0  0  0
  4  7  1  0  0  0  0
  5  8  2  0  0  0  0
  6  9  1  0  0  0  0
  7 10  2  0  0  0  0
  9 11  1  0  0  0  0
  9 12  1  0  0  0  0
 10 13  1  0  0  0  0
 13 14  1  0  0  0  0
 13 15  2  3  0  0  0
 14 16  2  0  0  0  0
 14 17  1  0  0  0  0
 15 18  1  0  0  0  0
 15 19  1  0  0  0  0
 16 20  1  0  0  0  0
 17 21  2  0  0  0  0
 18 22  2  0  0  0  0
 18 23  1  0  0  0  0
 19 24  1  0  0  0  0
 20 25  2  0  0  0  0
 22 26  1  0  0  0  0
 23 27  2  0  0  0  0
 25 28  1  0  0  0  0
 26 29  2  0  0  0  0
  8 10  1  0  0  0  0
 21 25  1  0  0  0  0
 27 29  1  0  0  0  0
M  END
>  <MolRegNo>
1408997

>  <m>
=

>  <Value>
0.5

>  <Unit>
nM

>  <Type>
Ki

>  <pValue>
9.3

>  <Ligand Efficiency>
0.44

>  <Binding Efficiency>
24

>  <Surface Efficiency>
28.44

>  <Assay Index>
67394

>  <Assay Category>


>  <Assay Organism>
Homo sapiens

>  <Target ID>
19

>  <Target Name>
Estrogen receptor alpha

>  <Target Organism>
Homo sapiens

>  <Target Description>
Target is a single protein chain

>  <Sequence Accession>
P03372

>  <Reference>
Bioorg Med Chem Lett 13 (11), 1907-1910 (2003)

>  <Pubmed ID>
12749895

>  <DOI>
10.1016/s0960-894x(03)00306-8

$$$$
87156
Actelion Java MolfileCreator 1.0

 35 39  0  0  0  0  0  0  0  0999 V2000
    0.0000   -0.0000   -0.0000 O   0  0  0  0  0  0  0  0  0  0  0  0
   -1.3087   -0.7310   -0.0000 C   0  0  0  0  0  0  0  0  0  0  0  0
   -1.3205   -2.2165   -0.0000 N   0  0  0  0  0  0  0  0  0  0  0  0
   -2.6291    0.0236   -0.0000 C   0  0  0  0  0  0  0  0  0  0  0  0
   -2.6291   -2.9475   -0.0000 C   0  0  0  0  0  0  0  0  0  0  0  0
   -0.0354   -2.9475   -0.0000 C   0  0  0  0  0  0  0  0  0  0  0  0
   -3.9378   -0.7074   -0.0000 C   0  0  0  0  0  0  0  0  0  0  0  0
   -2.6409    1.5327   -0.0000 C   0  0  0  0  0  0  0  0  0  0  0  0
   -2.6409   -4.4330   -0.0000 C   0  0  0  0  0  0  0  0  0  0  0  0
   -3.9378   -2.1929   -0.0000 C   0  0  0  0  0  0  0  0  0  0  0  0
    1.2497   -2.1929   -0.0000 C   0  0  0  0  0  0  0  0  0  0  0  0
   -0.0472   -4.4330   -0.0000 C   0  0  0  0  0  0  0  0  0  0  0  0
   -5.2465    0.0472   -0.0000 C   0  0  0  0  0  0  0  0  0  0  0  0
   -3.9496    2.2872   -0.0000 C   0  0  0  0  0  0  0  0  0  0  0  0
   -3.9496   -5.1640   -0.0000 C   0  0  0  0  0  0  0  0  0  0  0  0
   -1.3558   -5.1640   -0.0000 C   0  0  0  0  0  0  0  0  0  0  0  0
   -5.2583   -2.9475   -0.0000 C   0  0  0  0  0  0  0  0  0  0  0  0
    2.5348   -2.9239   -0.0000 C   0  0  0  0  0  0  0  0  0  0  0  0
    1.2379   -0.6838   -0.0000 C   0  0  0  0  0  0  0  0  0  0  0  0
   -5.2583    1.5563   -0.0000 C   0  0  0  0  0  0  0  0  0  0  0  0
   -5.2701   -4.4094   -0.0000 C   0  0  0  0  0  0  0  0  0  0  0  0
    3.8317   -2.1693   -0.0000 C   0  0  0  0  0  0  0  0  0  0  0  0
    2.5230    0.0707   -0.0000 C   0  0  0  0  0  0  0  0  0  0  0  0
   -6.5905    2.3108   -0.0000 O   0  0  0  0  0  0  0  0  0  0  0  0
   -6.5787   -5.1640   -0.0000 O   0  0  0  0  0  0  0  0  0  0  0  0
    5.1168   -2.9239   -0.0000 O   0  0  0  0  0  0  0  0  0  0  0  0
    3.8199   -0.6602   -0.0000 C   0  0  0  0  0  0  0  0  0  0  0  0
   -7.9110    1.5798   -0.0000 C   0  0  0  0  0  0  0  0  0  0  0  0
   -9.2197    2.3344   -0.0000 C   0  0  0  0  0  0  0  0  0  0  0  0
  -10.5401    1.6034   -0.0000 N   0  0  0  0  0  0  0  0  0  0  0  0
  -11.8488    2.3580   -0.0000 C   0  0  0  0  0  0  0  0  0  0  0  0
  -10.5519    0.1179   -0.0000 C   0  0  0  0  0  0  0  0  0  0  0  0
  -13.1575    1.6270   -0.0000 C   0  0  0  0  0  0  0  0  0  0  0  0
  -11.8370   -0.6131   -0.0000 C   0  0  0  0  0  0  0  0  0  0  0  0
  -13.1693    0.1415   -0.0000 C   0  0  0  0  0  0  0  0  0  0  0  0
  1  2  2  0  0  0  0
  2  3  1  0  0  0  0
  2  4  1  0  0  0  0
  3  5  1  0  0  0  0
  3  6  1  0  0  0  0
  4  7  2  0  0  0  0
  4  8  1  0  0  0  0
  5  9  2  0  0  0  0
  5 10  1  0  0  0  0
  6 11  1  0  0  0  0
  6 12  1  0  0  0  0
  7 13  1  0  0  0  0
  8 14  2  0  0  0  0
  9 15  1  0  0  0  0
  9 16  1  0  0  0  0
 10 17  2  0  0  0  0
 11 18  2  0  0  0  0
 11 19  1  0  0  0  0
 13 20  2  0  0  0  0
 15 21  2  0  0  0  0
 18 22  1  0  0  0  0
 19 23  2  0  0  0  0
 20 24  1  0  0  0  0
 21 25  1  0  0  0  0
 22 26  1  0  0  0  0
 22 27  2  0  0  0  0
 24 28  1  0  0  0  0
 28 29  1  0  0  0  0
 29 30  1  0  0  0  0
 30 31  1  0  0  0  0
 30 32  1  0  0  0  0
 31 33  1  0  0  0  0
 32 34  1  0  0  0  0
 33 35  1  0  0  0  0
 12 16  1  0  0  0  0
 14 20  1  0  0  0  0
 17 21  1  0  0  0  0
 23 27  1  0  0  0  0
 34 35  1  0  0  0  0
M  END
>  <MolRegNo>
87156

>  <m>
=

>  <Value>
37

>  <Unit>
nM

>  <Type>
Ki

>  <pValue>
7.43

>  <Ligand Efficiency>
0.29

>  <Binding Efficiency>
15.73

>  <Surface Efficiency>
10.15

>  <Assay Index>
67394

>  <Assay Category>


>  <Assay Organism>
Homo sapiens

>  <Target ID>
19

>  <Target Name>
Estrogen receptor alpha

>  <Target Organism>
Homo sapiens

>  <Target Description>
Target is a single protein chain

>  <Sequence Accession>
P03372

>  <Reference>
Bioorg Med Chem Lett 13 (11), 1907-1910 (2003)

>  <Pubmed ID>
12749895

>  <DOI>
10.1016/s0960-894x(03)00306-8

$$$$
88199
Actelion Java MolfileCreator 1.0

 34 38  0  0  0  0  0  0  0  0999 V2000
    0.0000   -0.0000   -0.0000 O   0  0  0  0  0  0  0  0  0  0  0  0
    1.2972   -0.7378   -0.0000 C   0  0  0  0  0  0  0  0  0  0  0  0
   -1.3210   -0.7378   -0.0000 C   0  0  0  0  0  0  0  0  0  0  0  0
    1.2853   -2.2373   -0.0000 C   0  0  0  0  0  0  0  0  0  0  0  0
    2.5824    0.0238   -0.0000 C   0  0  0  0  0  0  0  0  0  0  0  0
   -2.6300    0.0238   -0.0000 C   0  0  0  0  0  0  0  0  0  0  0  0
    2.5705   -2.9751   -0.0000 C   0  0  0  0  0  0  0  0  0  0  0  0
    3.8677   -0.7140   -0.0000 C   0  0  0  0  0  0  0  0  0  0  0  0
   -3.9510   -0.7140   -0.0000 N   0  0  0  0  0  0  0  0  0  0  0  0
    3.8558   -2.2135   -0.0000 C   0  0  0  0  0  0  0  0  0  0  0  0
   -5.2600    0.0476   -0.0000 C   0  0  0  0  0  0  0  0  0  0  0  0
   -3.9629   -2.2135   -0.0000 C   0  0  0  0  0  0  0  0  0  0  0  0
    5.1529   -2.9513   -0.0000 C   0  0  0  0  0  0  0  0  0  0  0  0
   -6.5691   -0.6902   -0.0000 C   0  0  0  0  0  0  0  0  0  0  0  0
   -5.2481   -2.9513   -0.0000 C   0  0  0  0  0  0  0  0  0  0  0  0
    5.1410   -4.4389   -0.0000 N   0  0  0  0  0  0  0  0  0  0  0  0
   -6.5810   -2.1897   -0.0000 C   0  0  0  0  0  0  0  0  0  0  0  0
    3.8320   -5.1767   -0.0000 C   0  0  0  0  0  0  0  0  0  0  0  0
    6.4263   -5.1767   -0.0000 C   0  0  0  0  0  0  0  0  0  0  0  0
    3.8201   -6.6643   -0.0000 C   0  0  0  0  0  0  0  0  0  0  0  0
    2.5229   -4.4151   -0.0000 C   0  0  0  0  0  0  0  0  0  0  0  0
    7.7115   -4.4151   -0.0000 C   0  0  0  0  0  0  0  0  0  0  0  0
    6.4144   -6.6643   -0.0000 C   0  0  0  0  0  0  0  0  0  0  0  0
    2.5110   -7.4021   -0.0000 C   0  0  0  0  0  0  0  0  0  0  0  0
    5.1053   -7.4021   -0.0000 C   0  0  0  0  0  0  0  0  0  0  0  0
    1.2020   -5.1529   -0.0000 C   0  0  0  0  0  0  0  0  0  0  0  0
    8.9968   -5.1529   -0.0000 C   0  0  0  0  0  0  0  0  0  0  0  0
    7.6996   -2.8918   -0.0000 C   0  0  0  0  0  0  0  0  0  0  0  0
    1.1901   -6.6405   -0.0000 C   0  0  0  0  0  0  0  0  0  0  0  0
   10.2940   -4.3913   -0.0000 C   0  0  0  0  0  0  0  0  0  0  0  0
    8.9849   -2.1302   -0.0000 C   0  0  0  0  0  0  0  0  0  0  0  0
   -0.1190   -7.3902   -0.0000 O   0  0  0  0  0  0  0  0  0  0  0  0
   10.2821   -2.8680   -0.0000 C   0  0  0  0  0  0  0  0  0  0  0  0
   11.5673   -2.1064   -0.0000 O   0  0  0  0  0  0  0  0  0  0  0  0
  1  2  1  0  0  0  0
  1  3  1  0  0  0  0
  2  4  2  0  0  0  0
  2  5  1  0  0  0  0
  3  6  1  0  0  0  0
  4  7  1  0  0  0  0
  5  8  2  0  0  0  0
  6  9  1  0  0  0  0
  7 10  2  0  0  0  0
  9 11  1  0  0  0  0
  9 12  1  0  0  0  0
 10 13  1  0  0  0  0
 11 14  1  0  0  0  0
 12 15  1  0  0  0  0
 13 16  1  0  0  0  0
 14 17  1  0  0  0  0
 16 18  1  0  0  0  0
 16 19  1  0  0  0  0
 18 20  2  0  0  0  0
 18 21  1  0  0  0  0
 19 22  1  0  0  0  0
 19 23  1  0  0  0  0
 20 24  1  0  0  0  0
 20 25  1  0  0  0  0
 21 26  2  0  0  0  0
 22 27  2  0  0  0  0
 22 28  1  0  0  0  0
 24 29  2  0  0  0  0
 27 30  1  0  0  0  0
 28 31  2  0  0  0  0
 29 32  1  0  0  0  0
 30 33  2  0  0  0  0
 33 34  1  0  0  0  0
  8 10  1  0  0  0  0
 15 17  1  0  0  0  0
 23 25  1  0  0  0  0
 26 29  1  0  0  0  0
 31 33  1  0  0  0  0
M  END
>  <MolRegNo>
88199

>  <m>
=

>  <Value>
0.6

>  <Unit>
nM

>  <Type>
Ki

>  <pValue>
9.22

>  <Ligand Efficiency>
0.37

>  <Binding Efficiency>
20.11

>  <Surface Efficiency>
16.42

>  <Assay Index>
67394

>  <Assay Category>


>  <Assay Organism>
Homo sapiens

>  <Target ID>
19

>  <Target Name>
Estrogen receptor alpha

>  <Target Organism>
Homo sapiens

>  <Target Description>
Target is a single protein chain

>  <Sequence Accession>
P03372

>  <Reference>
Bioorg Med Chem Lett 13 (11), 1907-1910 (2003)

>  <Pubmed ID>
12749895

>  <DOI>
10.1016/s0960-894x(03)00306-8

$$$$
88164
Actelion Java MolfileCreator 1.0

 33 37  0  0  0  0  0  0  0  0999 V2000
    0.0000   -0.0000   -0.0000 O   0  0  0  0  0  0  0  0  0  0  0  0
   -0.0119   -1.4914   -0.0000 C   0  0  0  0  0  0  0  0  0  0  0  0
    1.2885    0.7636   -0.0000 C   0  0  0  0  0  0  0  0  0  0  0  0
   -1.3363   -2.2430   -0.0000 C   0  0  0  0  0  0  0  0  0  0  0  0
    1.2766   -2.2311   -0.0000 C   0  0  0  0  0  0  0  0  0  0  0  0
    2.5771    0.0239   -0.0000 C   0  0  0  0  0  0  0  0  0  0  0  0
   -1.3363   -3.7105   -0.0000 C   0  0  0  0  0  0  0  0  0  0  0  0
    1.2647   -3.7225   -0.0000 C   0  0  0  0  0  0  0  0  0  0  0  0
    3.8656    0.7874   -0.0000 N   0  0  0  0  0  0  0  0  0  0  0  0
   -0.0477   -4.4383   -0.0000 C   0  0  0  0  0  0  0  0  0  0  0  0
    3.8537    2.3027   -0.0000 C   0  0  0  0  0  0  0  0  0  0  0  0
    5.1542    0.0477   -0.0000 C   0  0  0  0  0  0  0  0  0  0  0  0
   -0.0597   -5.9297   -0.0000 N   0  0  0  0  0  0  0  0  0  0  0  0
    5.1422    3.0663   -0.0000 C   0  0  0  0  0  0  0  0  0  0  0  0
    6.4427    0.7994   -0.0000 C   0  0  0  0  0  0  0  0  0  0  0  0
   -1.3721   -6.6694   -0.0000 C   0  0  0  0  0  0  0  0  0  0  0  0
    1.2289   -6.6694   -0.0000 C   0  0  0  0  0  0  0  0  0  0  0  0
    6.4427    2.3265   -0.0000 C   0  0  0  0  0  0  0  0  0  0  0  0
   -1.3840   -8.1608   -0.0000 C   0  0  0  0  0  0  0  0  0  0  0  0
   -2.6845   -5.9058   -0.0000 C   0  0  0  0  0  0  0  0  0  0  0  0
    2.5174   -5.9058   -0.0000 C   0  0  0  0  0  0  0  0  0  0  0  0
    1.2170   -8.1608   -0.0000 C   0  0  0  0  0  0  0  0  0  0  0  0
   -2.6964   -8.9005   -0.0000 C   0  0  0  0  0  0  0  0  0  0  0  0
   -0.0954   -8.9005   -0.0000 C   0  0  0  0  0  0  0  0  0  0  0  0
   -4.0088   -6.6455   -0.0000 C   0  0  0  0  0  0  0  0  0  0  0  0
    3.8060   -6.6455   -0.0000 C   0  0  0  0  0  0  0  0  0  0  0  0
    2.5055   -4.3787   -0.0000 C   0  0  0  0  0  0  0  0  0  0  0  0
   -4.0207   -8.1369   -0.0000 C   0  0  0  0  0  0  0  0  0  0  0  0
    5.1065   -5.8820   -0.0000 C   0  0  0  0  0  0  0  0  0  0  0  0
    3.7940   -3.6151   -0.0000 C   0  0  0  0  0  0  0  0  0  0  0  0
   -5.3331   -8.8886   -0.0000 O   0  0  0  0  0  0  0  0  0  0  0  0
    5.0945   -4.3548   -0.0000 C   0  0  0  0  0  0  0  0  0  0  0  0
    6.3831   -3.5912   -0.0000 O   0  0  0  0  0  0  0  0  0  0  0  0
  1  2  1  0  0  0  0
  1  3  1  0  0  0  0
  2  4  2  0  0  0  0
  2  5  1  0  0  0  0
  3  6  1  0  0  0  0
  4  7  1  0  0  0  0
  5  8  2  0  0  0  0
  6  9  1  0  0  0  0
  7 10  2  0  0  0  0
  9 11  1  0  0  0  0
  9 12  1  0  0  0  0
 10 13  1  0  0  0  0
 11 14  1  0  0  0  0
 12 15  1  0  0  0  0
 13 16  1  0  0  0  0
 13 17  1  0  0  0  0
 14 18  1  0  0  0  0
 16 19  2  0  0  0  0
 16 20  1  0  0  0  0
 17 21  1  0  0  0  0
 17 22  1  0  0  0  0
 19 23  1  0  0  0  0
 19 24  1  0  0  0  0
 20 25  2  0  0  0  0
 21 26  2  0  0  0  0
 21 27  1  0  0  0  0
 23 28  2  0  0  0  0
 26 29  1  0  0  0  0
 27 30  2  0  0  0  0
 28 31  1  0  0  0  0
 29 32  2  0  0  0  0
 32 33  1  0  0  0  0
  8 10  1  0  0  0  0
 15 18  1  0  0  0  0
 22 24  1  0  0  0  0
 25 28  1  0  0  0  0
 30 32  1  0  0  0  0
M  END
>  <MolRegNo>
88164

>  <m>
=

>  <Value>
2.5

>  <Unit>
nM

>  <Type>
Ki

>  <pValue>
8.6

>  <Ligand Efficiency>
0.36

>  <Binding Efficiency>
19.35

>  <Surface Efficiency>
15.31

>  <Assay Index>
67394

>  <Assay Category>


>  <Assay Organism>
Homo sapiens

>  <Target ID>
19

>  <Target Name>
Estrogen receptor alpha

>  <Target Organism>
Homo sapiens

>  <Target Description>
Target is a single protein chain

>  <Sequence Accession>
P03372

>  <Reference>
Bioorg Med Chem Lett 13 (11), 1907-1910 (2003)

>  <Pubmed ID>
12749895

>  <DOI>
10.1016/s0960-894x(03)00306-8

$$$$
224399
Actelion Java MolfileCreator 1.0

 19 22  0  0  1  0  0  0  0  0999 V2000
    0.0000   -0.0000   -0.0000 S   0  0  0  0  0  0  0  0  0  0  0  0
   -1.4504    0.4637   -0.0000 C   0  0  0  0  0  0  0  0  0  0  0  0
    0.8679    1.2246   -0.0000 C   0  0  0  0  0  0  0  0  0  0  0  0
   -1.4623    1.9854   -0.0000 C   0  0  0  0  0  0  0  0  0  0  0  0
   -2.7463   -0.2616   -0.0000 C   0  0  0  0  0  0  0  0  0  0  0  0
   -0.0357    2.4491   -0.0000 C   0  0  0  0  0  0  0  0  0  0  0  0
    2.3302    1.3910   -0.0000 C   0  0  0  0  0  0  0  0  0  0  0  0
   -2.7582    2.7463   -0.0000 C   0  0  0  0  0  0  0  0  0  0  0  0
   -4.0422    0.4993   -0.0000 C   0  0  0  0  0  0  0  0  0  0  0  0
    0.5588    3.8401   -0.0000 C   0  0  0  0  0  0  0  0  0  0  0  0
    2.9484    2.7820   -0.0000 C   0  0  0  0  0  0  0  0  0  0  0  0
    3.4359    0.3923   -0.0000 C   0  0  0  0  0  0  0  0  0  0  0  0
   -4.0541    1.9973   -0.0000 C   0  0  0  0  0  0  0  0  0  0  0  0
   -5.3381   -0.2140   -0.0000 O   0  0  0  0  0  0  0  0  0  0  0  0
    2.0449    4.0065   -0.0000 C   0  0  0  0  0  0  0  0  0  0  0  0
    4.4227    2.6156   -0.0000 C   0  0  0  0  0  0  0  0  0  0  0  0
    3.6737    4.0779   -0.0000 C   0  0  0  0  0  0  0  0  0  0  0  0
    4.7318    1.1532   -0.0000 C   0  0  0  0  0  0  0  0  0  0  0  0
    5.4570    3.6855   -0.0000 O   0  0  0  0  0  0  0  0  0  0  0  0
  1  2  1  0  0  0  0
  1  3  1  0  0  0  0
  2  4  2  0  0  0  0
  2  5  1  0  0  0  0
  3  6  2  0  0  0  0
  3  7  1  0  0  0  0
  4  8  1  0  0  0  0
  5  9  2  0  0  0  0
  6 10  1  0  0  0  0
  7 11  1  0  0  0  0
  7 12  1  6  0  0  0
  8 13  2  0  0  0  0
  9 14  1  0  0  0  0
 10 15  1  0  0  0  0
 11 16  1  0  0  0  0
 11 17  1  6  0  0  0
 12 18  1  0  0  0  0
 16 19  1  6  0  0  0
  4  6  1  0  0  0  0
  9 13  1  0  0  0  0
 11 15  1  0  0  0  0
 16 18  1  0  0  0  0
M  END
>  <MolRegNo>
224399

>  <m>
=

>  <Value>
13

>  <Unit>
nM

>  <Type>
Ki

>  <pValue>
7.89

>  <Ligand Efficiency>
0.57

>  <Binding Efficiency>
28.74

>  <Surface Efficiency>
19.49

>  <Assay Index>
66918

>  <Assay Category>


>  <Assay Organism>
Homo sapiens

>  <Target ID>
19

>  <Target Name>
Estrogen receptor alpha

>  <Target Organism>
Homo sapiens

>  <Target Description>
Target is a single protein chain

>  <Sequence Accession>
P03372

>  <Reference>
Bioorg Med Chem Lett 13 (24), 4281-4284 (2003)

>  <Pubmed ID>
14643309

>  <DOI>
10.1016/j.bmcl.2003.09.060

$$$$
224402
Actelion Java MolfileCreator 1.0

 20 23  0  0  1  0  0  0  0  0999 V2000
    0.0000   -0.0000   -0.0000 O   0  0  0  0  0  0  0  0  0  0  0  0
    1.2809    0.7590   -0.0000 C   0  0  0  0  0  0  0  0  0  0  0  0
    2.5617    0.0237   -0.0000 C   0  0  0  0  0  0  0  0  0  0  0  0
    1.2690    2.2652   -0.0000 C   0  0  0  0  0  0  0  0  0  0  0  0
    3.8426    0.7709   -0.0000 C   0  0  0  0  0  0  0  0  0  0  0  0
    2.5498    3.0242   -0.0000 C   0  0  0  0  0  0  0  0  0  0  0  0
    3.8544    2.2889   -0.0000 C   0  0  0  0  0  0  0  0  0  0  0  0
    5.1353    0.0356   -0.0000 C   0  0  0  0  0  0  0  0  0  0  0  0
    5.1353    3.0717   -0.0000 C   0  0  0  0  0  0  0  0  0  0  0  0
    6.4280    0.7946   -0.0000 C   0  0  0  0  0  0  0  0  0  0  0  0
    6.4280    2.3127   -0.0000 C   0  0  0  0  0  0  0  0  0  0  0  0
    5.1234    4.5779   -0.0000 C   0  0  0  0  0  0  0  0  0  0  0  0
    7.7207    3.0717   -0.0000 C   0  0  0  0  0  0  0  0  0  0  0  0
    6.4398    5.3369   -0.0000 C   0  0  0  0  0  0  0  0  0  0  0  0
    7.7088    4.5779   -0.0000 C   0  0  0  0  0  0  0  0  0  0  0  0
    9.1320    2.5973   -0.0000 C   0  0  0  0  0  0  0  0  0  0  0  0
    9.1439    5.0404   -0.0000 C   0  0  0  0  0  0  0  0  0  0  0  0
    7.6970    6.0959   -0.0000 C   0  0  0  0  0  0  0  0  0  0  0  0
   10.0215    3.8188   -0.0000 C   0  0  0  0  0  0  0  0  0  0  0  0
    9.6064    6.4636   -0.0000 O   0  0  0  0  0  0  0  0  0  0  0  0
  1  2  1  0  0  0  0
  2  3  2  0  0  0  0
  2  4  1  0  0  0  0
  3  5  1  0  0  0  0
  4  6  2  0  0  0  0
  5  7  1  0  0  0  0
  5  8  2  0  0  0  0
  7  9  2  0  0  0  0
  8 10  1  0  0  0  0
  9 11  1  0  0  0  0
  9 12  1  0  0  0  0
 11 13  1  0  0  0  0
 12 14  1  0  0  0  0
 13 15  1  0  0  0  0
 13 16  1  1  0  0  0
 15 17  1  0  0  0  0
 15 18  1  1  0  0  0
 16 19  1  0  0  0  0
 17 20  1  6  0  0  0
  6  7  1  0  0  0  0
 10 11  2  0  0  0  0
 14 15  1  0  0  0  0
 17 19  1  0  0  0  0
M  END
>  <MolRegNo>
224402

>  <m>
=

>  <Value>
8

>  <Unit>
nM

>  <Type>
Ki

>  <pValue>
8.1

>  <Ligand Efficiency>
0.55

>  <Binding Efficiency>
30.17

>  <Surface Efficiency>
20.01

>  <Assay Index>
66918

>  <Assay Category>


>  <Assay Organism>
Homo sapiens

>  <Target ID>
19

>  <Target Name>
Estrogen receptor alpha

>  <Target Organism>
Homo sapiens

>  <Target Description>
Target is a single protein chain

>  <Sequence Accession>
P03372

>  <Reference>
Bioorg Med Chem Lett 13 (24), 4281-4284 (2003)

>  <Pubmed ID>
14643309

>  <DOI>
10.1016/j.bmcl.2003.09.060

$$$$
224401
Actelion Java MolfileCreator 1.0

 19 22  0  0  1  0  0  0  0  0999 V2000
    0.0000   -0.0000   -0.0000 S   0  0  0  0  0  0  0  0  0  0  0  0
   -1.4504    0.4637   -0.0000 C   0  0  0  0  0  0  0  0  0  0  0  0
    0.8679    1.2246   -0.0000 C   0  0  0  0  0  0  0  0  0  0  0  0
   -1.4623    1.9854   -0.0000 C   0  0  0  0  0  0  0  0  0  0  0  0
   -2.7463   -0.2616   -0.0000 C   0  0  0  0  0  0  0  0  0  0  0  0
   -0.0357    2.4491   -0.0000 C   0  0  0  0  0  0  0  0  0  0  0  0
    2.3302    1.3910   -0.0000 C   0  0  0  0  0  0  0  0  0  0  0  0
   -2.7582    2.7463   -0.0000 C   0  0  0  0  0  0  0  0  0  0  0  0
   -4.0422    0.4993   -0.0000 C   0  0  0  0  0  0  0  0  0  0  0  0
    0.5588    3.8401   -0.0000 C   0  0  0  0  0  0  0  0  0  0  0  0
    2.9484    2.7820   -0.0000 C   0  0  0  0  0  0  0  0  0  0  0  0
    3.4359    0.3923   -0.0000 C   0  0  0  0  0  0  0  0  0  0  0  0
   -4.0541    1.9973   -0.0000 C   0  0  0  0  0  0  0  0  0  0  0  0
   -5.3381   -0.2140   -0.0000 O   0  0  0  0  0  0  0  0  0  0  0  0
    2.0449    4.0065   -0.0000 C   0  0  0  0  0  0  0  0  0  0  0  0
    4.4227    2.6156   -0.0000 C   0  0  0  0  0  0  0  0  0  0  0  0
    3.6737    4.0779   -0.0000 C   0  0  0  0  0  0  0  0  0  0  0  0
    4.7318    1.1532   -0.0000 C   0  0  0  0  0  0  0  0  0  0  0  0
    5.4570    3.6855   -0.0000 O   0  0  0  0  0  0  0  0  0  0  0  0
  1  2  1  0  0  0  0
  1  3  1  0  0  0  0
  2  4  2  0  0  0  0
  2  5  1  0  0  0  0
  3  6  2  0  0  0  0
  3  7  1  0  0  0  0
  4  8  1  0  0  0  0
  5  9  2  0  0  0  0
  6 10  1  0  0  0  0
  7 11  1  0  0  0  0
  7 12  1  6  0  0  0
  8 13  2  0  0  0  0
  9 14  1  0  0  0  0
 10 15  1  0  0  0  0
 11 16  1  0  0  0  0
 11 17  1  1  0  0  0
 12 18  1  0  0  0  0
 16 19  1  1  0  0  0
  4  6  1  0  0  0  0
  9 13  1  0  0  0  0
 11 15  1  0  0  0  0
 16 18  1  0  0  0  0
M  END
>  <MolRegNo>
224401

>  <m>
=

>  <Value>
10

>  <Unit>
nM

>  <Type>
Ki

>  <pValue>
8

>  <Ligand Efficiency>
0.58

>  <Binding Efficiency>
29.16

>  <Surface Efficiency>
19.77

>  <Assay Index>
66918

>  <Assay Category>


>  <Assay Organism>
Homo sapiens

>  <Target ID>
19

>  <Target Name>
Estrogen receptor alpha

>  <Target Organism>
Homo sapiens

>  <Target Description>
Target is a single protein chain

>  <Sequence Accession>
P03372

>  <Reference>
Bioorg Med Chem Lett 13 (24), 4281-4284 (2003)

>  <Pubmed ID>
14643309

>  <DOI>
10.1016/j.bmcl.2003.09.060

$$$$
224923
Actelion Java MolfileCreator 1.0

 19 22  0  0  1  0  0  0  0  0999 V2000
    0.0000   -0.0000   -0.0000 S   0  0  0  0  0  0  0  0  0  0  0  0
   -1.4504    0.4637   -0.0000 C   0  0  0  0  0  0  0  0  0  0  0  0
    0.8679    1.2246   -0.0000 C   0  0  0  0  0  0  0  0  0  0  0  0
   -1.4623    1.9854   -0.0000 C   0  0  0  0  0  0  0  0  0  0  0  0
   -2.7463   -0.2616   -0.0000 C   0  0  0  0  0  0  0  0  0  0  0  0
   -0.0357    2.4491   -0.0000 C   0  0  0  0  0  0  0  0  0  0  0  0
    2.3302    1.3910   -0.0000 C   0  0  0  0  0  0  0  0  0  0  0  0
   -2.7582    2.7463   -0.0000 C   0  0  0  0  0  0  0  0  0  0  0  0
   -4.0422    0.4993   -0.0000 C   0  0  0  0  0  0  0  0  0  0  0  0
    0.5588    3.8401   -0.0000 C   0  0  0  0  0  0  0  0  0  0  0  0
    2.9484    2.7820   -0.0000 C   0  0  0  0  0  0  0  0  0  0  0  0
    3.4359    0.3923   -0.0000 C   0  0  0  0  0  0  0  0  0  0  0  0
   -4.0541    1.9973   -0.0000 C   0  0  0  0  0  0  0  0  0  0  0  0
   -5.3381   -0.2140   -0.0000 O   0  0  0  0  0  0  0  0  0  0  0  0
    2.0449    4.0065   -0.0000 C   0  0  0  0  0  0  0  0  0  0  0  0
    4.4227    2.6156   -0.0000 C   0  0  0  0  0  0  0  0  0  0  0  0
    3.6737    4.0779   -0.0000 C   0  0  0  0  0  0  0  0  0  0  0  0
    4.7318    1.1532   -0.0000 C   0  0  0  0  0  0  0  0  0  0  0  0
    5.4570    3.6855   -0.0000 O   0  0  0  0  0  0  0  0  0  0  0  0
  1  2  1  0  0  0  0
  1  3  1  0  0  0  0
  2  4  2  0  0  0  0
  2  5  1  0  0  0  0
  3  6  2  0  0  0  0
  3  7  1  0  0  0  0
  4  8  1  0  0  0  0
  5  9  2  0  0  0  0
  6 10  1  0  0  0  0
  7 11  1  0  0  0  0
  7 12  1  1  0  0  0
  8 13  2  0  0  0  0
  9 14  1  0  0  0  0
 10 15  1  0  0  0  0
 11 16  1  0  0  0  0
 11 17  1  6  0  0  0
 12 18  1  0  0  0  0
 16 19  1  6  0  0  0
  4  6  1  0  0  0  0
  9 13  1  0  0  0  0
 11 15  1  0  0  0  0
 16 18  1  0  0  0  0
M  END
>  <MolRegNo>
224923

>  <m>
=

>  <Value>
24

>  <Unit>
nM

>  <Type>
Ki

>  <pValue>
7.62

>  <Ligand Efficiency>
0.55

>  <Binding Efficiency>
27.77

>  <Surface Efficiency>
18.83

>  <Assay Index>
66918

>  <Assay Category>


>  <Assay Organism>
Homo sapiens

>  <Target ID>
19

>  <Target Name>
Estrogen receptor alpha

>  <Target Organism>
Homo sapiens

>  <Target Description>
Target is a single protein chain

>  <Sequence Accession>
P03372

>  <Reference>
Bioorg Med Chem Lett 13 (24), 4281-4284 (2003)

>  <Pubmed ID>
14643309

>  <DOI>
10.1016/j.bmcl.2003.09.060

$$$$
224952
Actelion Java MolfileCreator 1.0

 19 22  0  0  1  0  0  0  0  0999 V2000
    0.0000   -0.0000   -0.0000 S   0  0  0  0  0  0  0  0  0  0  0  0
   -1.4499    0.4635   -0.0000 C   0  0  0  0  0  0  0  0  0  0  0  0
    0.8676    1.2241   -0.0000 C   0  0  0  0  0  0  0  0  0  0  0  0
   -1.4618    1.9847   -0.0000 C   0  0  0  0  0  0  0  0  0  0  0  0
   -2.7453   -0.2615   -0.0000 C   0  0  0  0  0  0  0  0  0  0  0  0
   -0.0357    2.4482   -0.0000 C   0  0  0  0  0  0  0  0  0  0  0  0
    2.3294    1.3905   -0.0000 C   0  0  0  0  0  0  0  0  0  0  0  0
   -2.7572    2.7453   -0.0000 C   0  0  0  0  0  0  0  0  0  0  0  0
   -4.0407    0.4992   -0.0000 C   0  0  0  0  0  0  0  0  0  0  0  0
    0.5467    3.8387   -0.0000 C   0  0  0  0  0  0  0  0  0  0  0  0
    2.9355    2.7810   -0.0000 C   0  0  0  0  0  0  0  0  0  0  0  0
    3.4346    0.3922   -0.0000 C   0  0  0  0  0  0  0  0  0  0  0  0
   -4.0526    1.9966   -0.0000 C   0  0  0  0  0  0  0  0  0  0  0  0
   -5.3362   -0.2139   -0.0000 O   0  0  0  0  0  0  0  0  0  0  0  0
    2.0441    4.0051   -0.0000 C   0  0  0  0  0  0  0  0  0  0  0  0
    4.4092    2.6146   -0.0000 C   0  0  0  0  0  0  0  0  0  0  0  0
    3.6723    4.0764   -0.0000 C   0  0  0  0  0  0  0  0  0  0  0  0
    4.7300    1.1528   -0.0000 C   0  0  0  0  0  0  0  0  0  0  0  0
    5.4550    3.6842   -0.0000 O   0  0  0  0  0  0  0  0  0  0  0  0
  1  2  1  0  0  0  0
  1  3  1  0  0  0  0
  2  4  2  0  0  0  0
  2  5  1  0  0  0  0
  3  6  2  0  0  0  0
  3  7  1  0  0  0  0
  4  8  1  0  0  0  0
  5  9  2  0  0  0  0
  6 10  1  0  0  0  0
  7 11  1  0  0  0  0
  7 12  1  1  0  0  0
  8 13  2  0  0  0  0
  9 14  1  0  0  0  0
 10 15  1  0  0  0  0
 11 16  1  0  0  0  0
 11 17  1  1  0  0  0
 12 18  1  0  0  0  0
 16 19  1  6  0  0  0
  4  6  1  0  0  0  0
  9 13  1  0  0  0  0
 11 15  1  0  0  0  0
 16 18  1  0  0  0  0
M  END
>  <MolRegNo>
224952

>  <m>
=

>  <Value>
23

>  <Unit>
nM

>  <Type>
Ki

>  <pValue>
7.64

>  <Ligand Efficiency>
0.55

>  <Binding Efficiency>
27.84

>  <Surface Efficiency>
18.88

>  <Assay Index>
66918

>  <Assay Category>


>  <Assay Organism>
Homo sapiens

>  <Target ID>
19

>  <Target Name>
Estrogen receptor alpha

>  <Target Organism>
Homo sapiens

>  <Target Description>
Target is a single protein chain

>  <Sequence Accession>
P03372

>  <Reference>
Bioorg Med Chem Lett 13 (24), 4281-4284 (2003)

>  <Pubmed ID>
14643309

>  <DOI>
10.1016/j.bmcl.2003.09.060

$$$$
223847
Actelion Java MolfileCreator 1.0

 19 22  0  0  1  0  0  0  0  0999 V2000
    0.0000   -0.0000   -0.0000 S   0  0  0  0  0  0  0  0  0  0  0  0
   -1.4504    0.4637   -0.0000 C   0  0  0  0  0  0  0  0  0  0  0  0
    0.8679    1.2246   -0.0000 C   0  0  0  0  0  0  0  0  0  0  0  0
   -1.4623    1.9854   -0.0000 C   0  0  0  0  0  0  0  0  0  0  0  0
   -2.7463   -0.2616   -0.0000 C   0  0  0  0  0  0  0  0  0  0  0  0
   -0.0357    2.4491   -0.0000 C   0  0  0  0  0  0  0  0  0  0  0  0
    2.3302    1.3910   -0.0000 C   0  0  0  0  0  0  0  0  0  0  0  0
   -2.7582    2.7463   -0.0000 C   0  0  0  0  0  0  0  0  0  0  0  0
   -4.0422    0.4993   -0.0000 C   0  0  0  0  0  0  0  0  0  0  0  0
    0.5588    3.8401   -0.0000 C   0  0  0  0  0  0  0  0  0  0  0  0
    2.9484    2.7820   -0.0000 C   0  0  0  0  0  0  0  0  0  0  0  0
    3.4359    0.3923   -0.0000 C   0  0  0  0  0  0  0  0  0  0  0  0
   -4.0541    1.9973   -0.0000 C   0  0  0  0  0  0  0  0  0  0  0  0
   -5.3381   -0.2140   -0.0000 O   0  0  0  0  0  0  0  0  0  0  0  0
    2.0449    4.0065   -0.0000 C   0  0  0  0  0  0  0  0  0  0  0  0
    4.4227    2.6156   -0.0000 C   0  0  0  0  0  0  0  0  0  0  0  0
    3.6737    4.0779   -0.0000 C   0  0  0  0  0  0  0  0  0  0  0  0
    4.7318    1.1532   -0.0000 C   0  0  0  0  0  0  0  0  0  0  0  0
    5.4570    3.6855   -0.0000 O   0  0  0  0  0  0  0  0  0  0  0  0
  1  2  1  0  0  0  0
  1  3  1  0  0  0  0
  2  4  2  0  0  0  0
  2  5  1  0  0  0  0
  3  6  2  0  0  0  0
  3  7  1  0  0  0  0
  4  8  1  0  0  0  0
  5  9  2  0  0  0  0
  6 10  1  0  0  0  0
  7 11  1  0  0  0  0
  7 12  1  1  0  0  0
  8 13  2  0  0  0  0
  9 14  1  0  0  0  0
 10 15  1  0  0  0  0
 11 16  1  0  0  0  0
 11 17  1  1  0  0  0
 12 18  1  0  0  0  0
 16 19  1  1  0  0  0
  4  6  1  0  0  0  0
  9 13  1  0  0  0  0
 11 15  1  0  0  0  0
 16 18  1  0  0  0  0
M  END
>  <MolRegNo>
223847

>  <m>
=

>  <Value>
4

>  <Unit>
nM

>  <Type>
Ki

>  <pValue>
8.4

>  <Ligand Efficiency>
0.6

>  <Binding Efficiency>
30.61

>  <Surface Efficiency>
20.76

>  <Assay Index>
66918

>  <Assay Category>


>  <Assay Organism>
Homo sapiens

>  <Target ID>
19

>  <Target Name>
Estrogen receptor alpha

>  <Target Organism>
Homo sapiens

>  <Target Description>
Target is a single protein chain

>  <Sequence Accession>
P03372

>  <Reference>
Bioorg Med Chem Lett 13 (24), 4281-4284 (2003)

>  <Pubmed ID>
14643309

>  <DOI>
10.1016/j.bmcl.2003.09.060

$$$$
90566
Actelion Java MolfileCreator 1.0

 30 33  0  0  0  0  0  0  0  0999 V2000
    0.0000   -0.0000   -0.0000 O   0  0  0  0  0  0  0  0  0  0  0  0
    1.3407    0.7872   -0.0000 C   0  0  0  0  0  0  0  0  0  0  0  0
    2.6813    0.0246   -0.0000 C   0  0  0  0  0  0  0  0  0  0  0  0
    1.3284    2.3615   -0.0000 C   0  0  0  0  0  0  0  0  0  0  0  0
    4.0220    0.8118   -0.0000 C   0  0  0  0  0  0  0  0  0  0  0  0
    2.6690   -1.5252   -0.0000 C   0  0  0  0  0  0  0  0  0  0  0  0
    2.6690    3.1487   -0.0000 C   0  0  0  0  0  0  0  0  0  0  0  0
    4.0097    2.3861   -0.0000 C   0  0  0  0  0  0  0  0  0  0  0  0
    5.3504    3.1856   -0.0000 C   0  0  0  0  0  0  0  0  0  0  0  0
    5.3258    4.7477   -0.0000 N   0  0  0  0  0  0  0  0  0  0  0  0
    6.6910    2.4230   -0.0000 C   0  0  0  0  0  0  0  0  0  0  0  0
    6.6418    5.5471   -0.0000 C   0  0  0  0  0  0  0  0  0  0  0  0
    8.0317    3.2102   -0.0000 C   0  0  0  0  0  0  0  0  0  0  0  0
    6.6295    7.1215   -0.0000 N   0  0  0  0  0  0  0  0  0  0  0  0
    8.0071    4.7969   -0.0000 C   0  0  0  0  0  0  0  0  0  0  0  0
    9.3846    2.4599   -0.0000 C   0  0  0  0  0  0  0  0  0  0  0  0
    7.9702    7.9333   -0.0000 C   0  0  0  0  0  0  0  0  0  0  0  0
    5.2643    7.9087   -0.0000 C   0  0  0  0  0  0  0  0  0  0  0  0
    9.3600    0.9102   -0.0000 C   0  0  0  0  0  0  0  0  0  0  0  0
   10.7007    3.2471   -0.0000 C   0  0  0  0  0  0  0  0  0  0  0  0
    9.2124    7.3675   -0.0000 C   0  0  0  0  0  0  0  0  0  0  0  0
   10.7130    0.1476   -0.0000 C   0  0  0  0  0  0  0  0  0  0  0  0
   12.0414    2.4845   -0.0000 C   0  0  0  0  0  0  0  0  0  0  0  0
   10.3071    8.0932   -0.0000 C   0  0  0  0  0  0  0  0  0  0  0  0
   12.0537    0.9348   -0.0000 C   0  0  0  0  0  0  0  0  0  0  0  0
   11.4756    7.4905   -0.0000 C   0  0  0  0  0  0  0  0  0  0  0  0
   10.2456    9.4215   -0.0000 C   0  0  0  0  0  0  0  0  0  0  0  0
   12.5703    8.2039   -0.0000 C   0  0  0  0  0  0  0  0  0  0  0  0
   11.3403   10.1472   -0.0000 C   0  0  0  0  0  0  0  0  0  0  0  0
   12.5088    9.5445   -0.0000 C   0  0  0  0  0  0  0  0  0  0  0  0
  1  2  1  0  0  0  0
  2  3  2  0  0  0  0
  2  4  1  0  0  0  0
  3  5  1  0  0  0  0
  3  6  1  0  0  0  0
  4  7  2  0  0  0  0
  5  8  2  0  0  0  0
  8  9  1  0  0  0  0
  9 10  2  0  0  0  0
  9 11  1  0  0  0  0
 10 12  1  0  0  0  0
 11 13  2  0  0  0  0
 12 14  1  0  0  0  0
 12 15  2  0  0  0  0
 13 16  1  0  0  0  0
 14 17  1  0  0  0  0
 14 18  1  0  0  0  0
 16 19  2  0  0  0  0
 16 20  1  0  0  0  0
 17 21  1  0  0  0  0
 19 22  1  0  0  0  0
 20 23  2  0  0  0  0
 21 24  1  0  0  0  0
 22 25  2  0  0  0  0
 24 26  2  0  0  0  0
 24 27  1  0  0  0  0
 26 28  1  0  0  0  0
 27 29  2  0  0  0  0
 28 30  2  0  0  0  0
  7  8  1  0  0  0  0
 13 15  1  0  0  0  0
 23 25  1  0  0  0  0
 29 30  1  0  0  0  0
M  END
>  <MolRegNo>
90566

>  <m>
=

>  <Value>
160

>  <Unit>
nM

>  <Type>
Ki

>  <pValue>
6.8

>  <Ligand Efficiency>
0.31

>  <Binding Efficiency>
17.23

>  <Surface Efficiency>
18.69

>  <Assay Index>
67392

>  <Assay Category>


>  <Assay Organism>


>  <Target ID>
19

>  <Target Name>
Estrogen receptor alpha

>  <Target Organism>
Homo sapiens

>  <Target Description>
Target is a single protein chain

>  <Sequence Accession>
P03372

>  <Reference>
Bioorg Med Chem Lett 11 (14), 1939-1942 (2001)

>  <Pubmed ID>
11459665

>  <DOI>
10.1016/s0960-894x(01)00321-3

$$$$
90991
Actelion Java MolfileCreator 1.0

 29 32  0  0  0  0  0  0  0  0999 V2000
    0.0000   -0.0000   -0.0000 O   0  0  0  0  0  0  0  0  0  0  0  0
    1.3004    0.7635   -0.0000 C   0  0  0  0  0  0  0  0  0  0  0  0
    2.5888    0.0239   -0.0000 C   0  0  0  0  0  0  0  0  0  0  0  0
    1.2884    2.2786   -0.0000 C   0  0  0  0  0  0  0  0  0  0  0  0
    3.8772    0.7874   -0.0000 C   0  0  0  0  0  0  0  0  0  0  0  0
    2.5768   -1.4674   -0.0000 C   0  0  0  0  0  0  0  0  0  0  0  0
    2.5768    3.0421   -0.0000 C   0  0  0  0  0  0  0  0  0  0  0  0
    3.8653    2.3025   -0.0000 C   0  0  0  0  0  0  0  0  0  0  0  0
    5.1537    3.0779   -0.0000 C   0  0  0  0  0  0  0  0  0  0  0  0
    5.1298    4.5930   -0.0000 N   0  0  0  0  0  0  0  0  0  0  0  0
    6.4421    2.3382   -0.0000 C   0  0  0  0  0  0  0  0  0  0  0  0
    6.4063    5.3684   -0.0000 C   0  0  0  0  0  0  0  0  0  0  0  0
    7.7305    3.1018   -0.0000 C   0  0  0  0  0  0  0  0  0  0  0  0
    6.3944    6.8835   -0.0000 N   0  0  0  0  0  0  0  0  0  0  0  0
    7.7186    4.6407   -0.0000 C   0  0  0  0  0  0  0  0  0  0  0  0
    9.0309    2.3740   -0.0000 C   0  0  0  0  0  0  0  0  0  0  0  0
    7.6828    7.6590   -0.0000 C   0  0  0  0  0  0  0  0  0  0  0  0
    5.0702    7.6470   -0.0000 C   0  0  0  0  0  0  0  0  0  0  0  0
   10.3074    3.1375   -0.0000 C   0  0  0  0  0  0  0  0  0  0  0  0
    9.0070    0.8828   -0.0000 C   0  0  0  0  0  0  0  0  0  0  0  0
    8.9712    6.9193   -0.0000 C   0  0  0  0  0  0  0  0  0  0  0  0
   11.5958    2.3979   -0.0000 C   0  0  0  0  0  0  0  0  0  0  0  0
   10.3074    0.1432   -0.0000 C   0  0  0  0  0  0  0  0  0  0  0  0
   10.2477    7.7067   -0.0000 C   0  0  0  0  0  0  0  0  0  0  0  0
    8.9593    5.4281   -0.0000 C   0  0  0  0  0  0  0  0  0  0  0  0
   11.5958    0.8947   -0.0000 C   0  0  0  0  0  0  0  0  0  0  0  0
   11.5481    6.9670   -0.0000 C   0  0  0  0  0  0  0  0  0  0  0  0
   10.2597    4.6884   -0.0000 C   0  0  0  0  0  0  0  0  0  0  0  0
   11.5481    5.4639   -0.0000 C   0  0  0  0  0  0  0  0  0  0  0  0
  1  2  1  0  0  0  0
  2  3  2  0  0  0  0
  2  4  1  0  0  0  0
  3  5  1  0  0  0  0
  3  6  1  0  0  0  0
  4  7  2  0  0  0  0
  5  8  2  0  0  0  0
  8  9  1  0  0  0  0
  9 10  2  0  0  0  0
  9 11  1  0  0  0  0
 10 12  1  0  0  0  0
 11 13  2  0  0  0  0
 12 14  1  0  0  0  0
 12 15  2  0  0  0  0
 13 16  1  0  0  0  0
 14 17  1  0  0  0  0
 14 18  1  0  0  0  0
 16 19  2  0  0  0  0
 16 20  1  0  0  0  0
 17 21  1  0  0  0  0
 19 22  1  0  0  0  0
 20 23  2  0  0  0  0
 21 24  2  0  0  0  0
 21 25  1  0  0  0  0
 22 26  2  0  0  0  0
 24 27  1  0  0  0  0
 25 28  2  0  0  0  0
 27 29  2  0  0  0  0
  7  8  1  0  0  0  0
 13 15  1  0  0  0  0
 23 26  1  0  0  0  0
 28 29  1  0  0  0  0
M  END
>  <MolRegNo>
90991

>  <m>
=

>  <Value>
380

>  <Unit>
nM

>  <Type>
Ki

>  <pValue>
6.42

>  <Ligand Efficiency>
0.3

>  <Binding Efficiency>
16.87

>  <Surface Efficiency>
17.66

>  <Assay Index>
67392

>  <Assay Category>


>  <Assay Organism>


>  <Target ID>
19

>  <Target Name>
Estrogen receptor alpha

>  <Target Organism>
Homo sapiens

>  <Target Description>
Target is a single protein chain

>  <Sequence Accession>
P03372

>  <Reference>
Bioorg Med Chem Lett 11 (14), 1939-1942 (2001)

>  <Pubmed ID>
11459665

>  <DOI>
10.1016/s0960-894x(01)00321-3

$$$$
90720
Actelion Java MolfileCreator 1.0

 31 33  0  0  0  0  0  0  0  0999 V2000
    0.0000   -0.0000   -0.0000 O   0  0  0  0  0  0  0  0  0  0  0  0
   -1.3278   -0.7656   -0.0000 C   0  0  0  0  0  0  0  0  0  0  0  0
   -0.0359    1.5311   -0.0000 C   0  0  0  0  0  0  0  0  0  0  0  0
   -1.3278   -2.2608   -0.0000 C   0  0  0  0  0  0  0  0  0  0  0  0
    1.2679    2.2967   -0.0000 C   0  0  0  0  0  0  0  0  0  0  0  0
   -0.0239   -3.0024   -0.0000 N   0  0  0  0  0  0  0  0  0  0  0  0
   -0.0359   -4.4976   -0.0000 C   0  0  0  0  0  0  0  0  0  0  0  0
    1.2679   -2.2368   -0.0000 C   0  0  0  0  0  0  0  0  0  0  0  0
   -1.3397   -5.2512   -0.0000 N   0  0  0  0  0  0  0  0  0  0  0  0
    1.2799   -5.2273   -0.0000 C   0  0  0  0  0  0  0  0  0  0  0  0
    2.5718   -2.9665   -0.0000 C   0  0  0  0  0  0  0  0  0  0  0  0
   -1.3397   -6.7345   -0.0000 C   0  0  0  0  0  0  0  0  0  0  0  0
    1.2799   -6.7345   -0.0000 C   0  0  0  0  0  0  0  0  0  0  0  0
    3.8278   -2.0335   -0.0000 O   0  0  0  0  0  0  0  0  0  0  0  0
   -2.6435   -7.4761   -0.0000 C   0  0  0  0  0  0  0  0  0  0  0  0
   -0.0359   -7.4761   -0.0000 C   0  0  0  0  0  0  0  0  0  0  0  0
    2.5837   -7.4761   -0.0000 C   0  0  0  0  0  0  0  0  0  0  0  0
    4.9163   -2.8708   -0.0000 C   0  0  0  0  0  0  0  0  0  0  0  0
   -2.6555   -8.9833   -0.0000 C   0  0  0  0  0  0  0  0  0  0  0  0
   -3.9713   -6.7225   -0.0000 C   0  0  0  0  0  0  0  0  0  0  0  0
    2.5598   -8.9713   -0.0000 C   0  0  0  0  0  0  0  0  0  0  0  0
    3.8636   -6.7105   -0.0000 C   0  0  0  0  0  0  0  0  0  0  0  0
    6.1962   -2.3086   -0.0000 C   0  0  0  0  0  0  0  0  0  0  0  0
   -3.9833   -9.7249   -0.0000 C   0  0  0  0  0  0  0  0  0  0  0  0
   -5.2871   -7.4641   -0.0000 C   0  0  0  0  0  0  0  0  0  0  0  0
    3.8636   -9.7129   -0.0000 C   0  0  0  0  0  0  0  0  0  0  0  0
    5.1675   -7.4402   -0.0000 C   0  0  0  0  0  0  0  0  0  0  0  0
   -5.2990   -8.9593   -0.0000 C   0  0  0  0  0  0  0  0  0  0  0  0
   -3.9952  -11.2321   -0.0000 C   0  0  0  0  0  0  0  0  0  0  0  0
    5.1435   -8.9474   -0.0000 C   0  0  0  0  0  0  0  0  0  0  0  0
   -6.6268   -9.7010   -0.0000 O   0  0  0  0  0  0  0  0  0  0  0  0
  1  2  1  0  0  0  0
  1  3  1  0  0  0  0
  2  4  1  0  0  0  0
  3  5  1  0  0  0  0
  4  6  1  0  0  0  0
  6  7  1  0  0  0  0
  6  8  1  0  0  0  0
  7  9  2  0  0  0  0
  7 10  1  0  0  0  0
  8 11  1  0  0  0  0
  9 12  1  0  0  0  0
 10 13  2  0  0  0  0
 11 14  1  0  0  0  0
 12 15  1  0  0  0  0
 12 16  2  0  0  0  0
 13 17  1  0  0  0  0
 14 18  1  0  0  0  0
 15 19  2  0  0  0  0
 15 20  1  0  0  0  0
 17 21  2  0  0  0  0
 17 22  1  0  0  0  0
 18 23  1  0  0  0  0
 19 24  1  0  0  0  0
 20 25  2  0  0  0  0
 21 26  1  0  0  0  0
 22 27  2  0  0  0  0
 24 28  2  0  0  0  0
 24 29  1  0  0  0  0
 26 30  2  0  0  0  0
 28 31  1  0  0  0  0
 13 16  1  0  0  0  0
 25 28  1  0  0  0  0
 27 30  1  0  0  0  0
M  END
>  <MolRegNo>
90720

>  <m>
=

>  <Value>
2000

>  <Unit>
nM

>  <Type>
Ki

>  <pValue>
5.7

>  <Ligand Efficiency>
0.25

>  <Binding Efficiency>
13.55

>  <Surface Efficiency>
10.4

>  <Assay Index>
67392

>  <Assay Category>


>  <Assay Organism>


>  <Target ID>
19

>  <Target Name>
Estrogen receptor alpha

>  <Target Organism>
Homo sapiens

>  <Target Description>
Target is a single protein chain

>  <Sequence Accession>
P03372

>  <Reference>
Bioorg Med Chem Lett 11 (14), 1939-1942 (2001)

>  <Pubmed ID>
11459665

>  <DOI>
10.1016/s0960-894x(01)00321-3

$$$$
90959
Actelion Java MolfileCreator 1.0

 26 28  0  0  0  0  0  0  0  0999 V2000
    0.0000   -0.0000   -0.0000 O   0  0  0  0  0  0  0  0  0  0  0  0
    1.3198    0.7749   -0.0000 C   0  0  0  0  0  0  0  0  0  0  0  0
    2.6276    0.0242   -0.0000 C   0  0  0  0  0  0  0  0  0  0  0  0
    1.3077    2.3127   -0.0000 C   0  0  0  0  0  0  0  0  0  0  0  0
    3.9353    0.7992   -0.0000 C   0  0  0  0  0  0  0  0  0  0  0  0
    2.6155   -1.4894   -0.0000 C   0  0  0  0  0  0  0  0  0  0  0  0
    2.6155    3.0877   -0.0000 C   0  0  0  0  0  0  0  0  0  0  0  0
    3.9232    2.3370   -0.0000 C   0  0  0  0  0  0  0  0  0  0  0  0
    5.2309    3.1240   -0.0000 C   0  0  0  0  0  0  0  0  0  0  0  0
    5.2067    4.6618   -0.0000 N   0  0  0  0  0  0  0  0  0  0  0  0
    6.5386    2.3733   -0.0000 C   0  0  0  0  0  0  0  0  0  0  0  0
    6.5023    5.4489   -0.0000 C   0  0  0  0  0  0  0  0  0  0  0  0
    7.8464    3.1482   -0.0000 C   0  0  0  0  0  0  0  0  0  0  0  0
    6.4902    6.9866   -0.0000 N   0  0  0  0  0  0  0  0  0  0  0  0
    7.8342    4.7102   -0.0000 C   0  0  0  0  0  0  0  0  0  0  0  0
    9.1662    2.4096   -0.0000 C   0  0  0  0  0  0  0  0  0  0  0  0
    7.7979    7.7737   -0.0000 C   0  0  0  0  0  0  0  0  0  0  0  0
    5.1461    7.7616   -0.0000 C   0  0  0  0  0  0  0  0  0  0  0  0
   10.4618    3.1846   -0.0000 C   0  0  0  0  0  0  0  0  0  0  0  0
    9.1420    0.8960   -0.0000 C   0  0  0  0  0  0  0  0  0  0  0  0
    9.0088    7.2167   -0.0000 C   0  0  0  0  0  0  0  0  0  0  0  0
   11.7695    2.4338   -0.0000 C   0  0  0  0  0  0  0  0  0  0  0  0
   10.4618    0.1453   -0.0000 C   0  0  0  0  0  0  0  0  0  0  0  0
   10.0864    7.9190   -0.0000 C   0  0  0  0  0  0  0  0  0  0  0  0
   11.7695    0.9081   -0.0000 C   0  0  0  0  0  0  0  0  0  0  0  0
   11.2368    7.3257   -0.0000 C   0  0  0  0  0  0  0  0  0  0  0  0
  1  2  1  0  0  0  0
  2  3  2  0  0  0  0
  2  4  1  0  0  0  0
  3  5  1  0  0  0  0
  3  6  1  0  0  0  0
  4  7  2  0  0  0  0
  5  8  2  0  0  0  0
  8  9  1  0  0  0  0
  9 10  2  0  0  0  0
  9 11  1  0  0  0  0
 10 12  1  0  0  0  0
 11 13  2  0  0  0  0
 12 14  1  0  0  0  0
 12 15  2  0  0  0  0
 13 16  1  0  0  0  0
 14 17  1  0  0  0  0
 14 18  1  0  0  0  0
 16 19  2  0  0  0  0
 16 20  1  0  0  0  0
 17 21  1  0  0  0  0
 19 22  1  0  0  0  0
 20 23  2  0  0  0  0
 21 24  1  0  0  0  0
 22 25  2  0  0  0  0
 24 26  1  0  0  0  0
  7  8  1  0  0  0  0
 13 15  1  0  0  0  0
 23 25  1  0  0  0  0
M  END
>  <MolRegNo>
90959

>  <m>
=

>  <Value>
660

>  <Unit>
nM

>  <Type>
Ki

>  <pValue>
6.18

>  <Ligand Efficiency>
0.32

>  <Binding Efficiency>
17.84

>  <Surface Efficiency>
17

>  <Assay Index>
67392

>  <Assay Category>


>  <Assay Organism>


>  <Target ID>
19

>  <Target Name>
Estrogen receptor alpha

>  <Target Organism>
Homo sapiens

>  <Target Description>
Target is a single protein chain

>  <Sequence Accession>
P03372

>  <Reference>
Bioorg Med Chem Lett 11 (14), 1939-1942 (2001)

>  <Pubmed ID>
11459665

>  <DOI>
10.1016/s0960-894x(01)00321-3

$$$$
90778
Actelion Java MolfileCreator 1.0

 33 37  0  0  0  0  0  0  0  0999 V2000
    0.0000   -0.0000   -0.0000 O   0  0  0  0  0  0  0  0  0  0  0  0
    1.3010    0.7639   -0.0000 C   0  0  0  0  0  0  0  0  0  0  0  0
    2.5900    0.0239   -0.0000 C   0  0  0  0  0  0  0  0  0  0  0  0
    1.2890    2.2797   -0.0000 C   0  0  0  0  0  0  0  0  0  0  0  0
    3.8790    0.7877   -0.0000 C   0  0  0  0  0  0  0  0  0  0  0  0
    2.5780   -1.4681   -0.0000 C   0  0  0  0  0  0  0  0  0  0  0  0
    2.5780    3.0435   -0.0000 C   0  0  0  0  0  0  0  0  0  0  0  0
    3.8671    2.3035   -0.0000 C   0  0  0  0  0  0  0  0  0  0  0  0
    5.1561    3.0793   -0.0000 C   0  0  0  0  0  0  0  0  0  0  0  0
    5.1322    4.5951   -0.0000 N   0  0  0  0  0  0  0  0  0  0  0  0
    6.4451    2.3393   -0.0000 C   0  0  0  0  0  0  0  0  0  0  0  0
    6.4093    5.3709   -0.0000 C   0  0  0  0  0  0  0  0  0  0  0  0
    7.7341    3.1032   -0.0000 C   0  0  0  0  0  0  0  0  0  0  0  0
    6.3974    6.8867   -0.0000 N   0  0  0  0  0  0  0  0  0  0  0  0
    7.7222    4.6429   -0.0000 C   0  0  0  0  0  0  0  0  0  0  0  0
    9.0351    2.3751   -0.0000 C   0  0  0  0  0  0  0  0  0  0  0  0
    7.6864    7.6625   -0.0000 C   0  0  0  0  0  0  0  0  0  0  0  0
    5.0725    7.6506   -0.0000 C   0  0  0  0  0  0  0  0  0  0  0  0
   10.3122    3.1390   -0.0000 C   0  0  0  0  0  0  0  0  0  0  0  0
    9.0112    0.8832   -0.0000 C   0  0  0  0  0  0  0  0  0  0  0  0
    8.9754    6.9225   -0.0000 C   0  0  0  0  0  0  0  0  0  0  0  0
   11.6012    2.3990   -0.0000 C   0  0  0  0  0  0  0  0  0  0  0  0
   10.3122    0.1432   -0.0000 C   0  0  0  0  0  0  0  0  0  0  0  0
   10.2525    7.7103   -0.0000 C   0  0  0  0  0  0  0  0  0  0  0  0
    8.9635    5.4306   -0.0000 C   0  0  0  0  0  0  0  0  0  0  0  0
   11.6012    0.8952   -0.0000 C   0  0  0  0  0  0  0  0  0  0  0  0
   11.5535    6.9703   -0.0000 C   0  0  0  0  0  0  0  0  0  0  0  0
   10.2167    9.2022   -0.0000 C   0  0  0  0  0  0  0  0  0  0  0  0
   10.2644    4.6906   -0.0000 C   0  0  0  0  0  0  0  0  0  0  0  0
   11.5535    5.4664   -0.0000 C   0  0  0  0  0  0  0  0  0  0  0  0
   12.8186    7.7461   -0.0000 C   0  0  0  0  0  0  0  0  0  0  0  0
   11.4938    9.9899   -0.0000 C   0  0  0  0  0  0  0  0  0  0  0  0
   12.7947    9.2499   -0.0000 C   0  0  0  0  0  0  0  0  0  0  0  0
  1  2  1  0  0  0  0
  2  3  2  0  0  0  0
  2  4  1  0  0  0  0
  3  5  1  0  0  0  0
  3  6  1  0  0  0  0
  4  7  2  0  0  0  0
  5  8  2  0  0  0  0
  8  9  1  0  0  0  0
  9 10  2  0  0  0  0
  9 11  1  0  0  0  0
 10 12  1  0  0  0  0
 11 13  2  0  0  0  0
 12 14  1  0  0  0  0
 12 15  2  0  0  0  0
 13 16  1  0  0  0  0
 14 17  1  0  0  0  0
 14 18  1  0  0  0  0
 16 19  2  0  0  0  0
 16 20  1  0  0  0  0
 17 21  1  0  0  0  0
 19 22  1  0  0  0  0
 20 23  2  0  0  0  0
 21 24  1  0  0  0  0
 21 25  2  0  0  0  0
 22 26  2  0  0  0  0
 24 27  1  0  0  0  0
 24 28  2  0  0  0  0
 25 29  1  0  0  0  0
 27 30  1  0  0  0  0
 27 31  2  0  0  0  0
 28 32  1  0  0  0  0
 31 33  1  0  0  0  0
  7  8  1  0  0  0  0
 13 15  1  0  0  0  0
 23 26  1  0  0  0  0
 29 30  2  0  0  0  0
 32 33  2  0  0  0  0
M  END
>  <MolRegNo>
90778

>  <m>
=

>  <Value>
450

>  <Unit>
nM

>  <Type>
Ki

>  <pValue>
6.35

>  <Ligand Efficiency>
0.26

>  <Binding Efficiency>
14.74

>  <Surface Efficiency>
17.46

>  <Assay Index>
67392

>  <Assay Category>


>  <Assay Organism>


>  <Target ID>
19

>  <Target Name>
Estrogen receptor alpha

>  <Target Organism>
Homo sapiens

>  <Target Description>
Target is a single protein chain

>  <Sequence Accession>
P03372

>  <Reference>
Bioorg Med Chem Lett 11 (14), 1939-1942 (2001)

>  <Pubmed ID>
11459665

>  <DOI>
10.1016/s0960-894x(01)00321-3

$$$$
90992
Actelion Java MolfileCreator 1.0

 25 27  0  0  0  0  0  0  0  0999 V2000
    0.0000   -0.0000   -0.0000 O   0  0  0  0  0  0  0  0  0  0  0  0
    1.3116    0.7701   -0.0000 C   0  0  0  0  0  0  0  0  0  0  0  0
    1.2996    2.3104   -0.0000 C   0  0  0  0  0  0  0  0  0  0  0  0
    2.6232    0.0241   -0.0000 C   0  0  0  0  0  0  0  0  0  0  0  0
    2.6112    3.0805   -0.0000 C   0  0  0  0  0  0  0  0  0  0  0  0
    3.9349    0.7942   -0.0000 C   0  0  0  0  0  0  0  0  0  0  0  0
    3.9228    2.3344   -0.0000 C   0  0  0  0  0  0  0  0  0  0  0  0
    5.2344    3.1166   -0.0000 C   0  0  0  0  0  0  0  0  0  0  0  0
    5.2104    4.6448   -0.0000 N   0  0  0  0  0  0  0  0  0  0  0  0
    6.5461    2.3705   -0.0000 C   0  0  0  0  0  0  0  0  0  0  0  0
    6.4979    5.4270   -0.0000 C   0  0  0  0  0  0  0  0  0  0  0  0
    7.8577    3.1407   -0.0000 C   0  0  0  0  0  0  0  0  0  0  0  0
    6.4859    6.9672   -0.0000 N   0  0  0  0  0  0  0  0  0  0  0  0
    7.8336    4.6929   -0.0000 C   0  0  0  0  0  0  0  0  0  0  0  0
    9.1813    2.4066   -0.0000 C   0  0  0  0  0  0  0  0  0  0  0  0
    7.7975    7.7614   -0.0000 C   0  0  0  0  0  0  0  0  0  0  0  0
    5.1502    7.7373   -0.0000 C   0  0  0  0  0  0  0  0  0  0  0  0
    9.1573    0.8905   -0.0000 C   0  0  0  0  0  0  0  0  0  0  0  0
   10.4689    3.1768   -0.0000 C   0  0  0  0  0  0  0  0  0  0  0  0
    9.0129    7.2079   -0.0000 C   0  0  0  0  0  0  0  0  0  0  0  0
   10.4809    0.1444   -0.0000 C   0  0  0  0  0  0  0  0  0  0  0  0
   11.7805    2.4307   -0.0000 C   0  0  0  0  0  0  0  0  0  0  0  0
   10.0838    7.9178   -0.0000 C   0  0  0  0  0  0  0  0  0  0  0  0
    9.0971    5.8722   -0.0000 C   0  0  0  0  0  0  0  0  0  0  0  0
   11.7925    0.9145   -0.0000 C   0  0  0  0  0  0  0  0  0  0  0  0
  1  2  1  0  0  0  0
  2  3  2  0  0  0  0
  2  4  1  0  0  0  0
  3  5  1  0  0  0  0
  4  6  2  0  0  0  0
  5  7  2  0  0  0  0
  7  8  1  0  0  0  0
  8  9  2  0  0  0  0
  8 10  1  0  0  0  0
  9 11  1  0  0  0  0
 10 12  2  0  0  0  0
 11 13  1  0  0  0  0
 11 14  2  0  0  0  0
 12 15  1  0  0  0  0
 13 16  1  0  0  0  0
 13 17  1  0  0  0  0
 15 18  2  0  0  0  0
 15 19  1  0  0  0  0
 16 20  1  0  0  0  0
 18 21  1  0  0  0  0
 19 22  2  0  0  0  0
 20 23  1  0  0  0  0
 20 24  1  0  0  0  0
 21 25  2  0  0  0  0
  6  7  1  0  0  0  0
 12 14  1  0  0  0  0
 22 25  1  0  0  0  0
M  END
>  <MolRegNo>
90992

>  <m>
=

>  <Value>
620

>  <Unit>
nM

>  <Type>
Ki

>  <pValue>
6.21

>  <Ligand Efficiency>
0.34

>  <Binding Efficiency>
18.67

>  <Surface Efficiency>
17.07

>  <Assay Index>
67392

>  <Assay Category>


>  <Assay Organism>


>  <Target ID>
19

>  <Target Name>
Estrogen receptor alpha

>  <Target Organism>
Homo sapiens

>  <Target Description>
Target is a single protein chain

>  <Sequence Accession>
P03372

>  <Reference>
Bioorg Med Chem Lett 11 (14), 1939-1942 (2001)

>  <Pubmed ID>
11459665

>  <DOI>
10.1016/s0960-894x(01)00321-3

$$$$
90876
Actelion Java MolfileCreator 1.0

 36 40  0  0  0  0  0  0  0  0999 V2000
    0.0000   -0.0000   -0.0000 O   0  0  0  0  0  0  0  0  0  0  0  0
    1.2824    0.7645   -0.0000 C   0  0  0  0  0  0  0  0  0  0  0  0
    2.5526    0.0247   -0.0000 C   0  0  0  0  0  0  0  0  0  0  0  0
    1.2701    2.2566   -0.0000 C   0  0  0  0  0  0  0  0  0  0  0  0
    3.8350    0.7892   -0.0000 C   0  0  0  0  0  0  0  0  0  0  0  0
    2.5402   -1.4551   -0.0000 C   0  0  0  0  0  0  0  0  0  0  0  0
    2.5402    3.0211   -0.0000 C   0  0  0  0  0  0  0  0  0  0  0  0
    3.8227    2.2936   -0.0000 C   0  0  0  0  0  0  0  0  0  0  0  0
    5.0928    3.0581   -0.0000 C   0  0  0  0  0  0  0  0  0  0  0  0
    5.0681    4.5502   -0.0000 N   0  0  0  0  0  0  0  0  0  0  0  0
    6.3752    2.3183   -0.0000 C   0  0  0  0  0  0  0  0  0  0  0  0
    6.3382    5.3147   -0.0000 C   0  0  0  0  0  0  0  0  0  0  0  0
    7.6577    3.0828   -0.0000 C   0  0  0  0  0  0  0  0  0  0  0  0
    6.3259    6.8191   -0.0000 N   0  0  0  0  0  0  0  0  0  0  0  0
    7.6330    4.5872   -0.0000 C   0  0  0  0  0  0  0  0  0  0  0  0
    8.9401    2.3553   -0.0000 C   0  0  0  0  0  0  0  0  0  0  0  0
    5.0065    7.5837   -0.0000 C   0  0  0  0  0  0  0  0  0  0  0  0
    7.5960    7.5837   -0.0000 C   0  0  0  0  0  0  0  0  0  0  0  0
   10.1979    3.1198   -0.0000 C   0  0  0  0  0  0  0  0  0  0  0  0
    8.9154    0.8878   -0.0000 C   0  0  0  0  0  0  0  0  0  0  0  0
    4.9818    9.0757   -0.0000 C   0  0  0  0  0  0  0  0  0  0  0  0
    8.8784    6.8685   -0.0000 C   0  0  0  0  0  0  0  0  0  0  0  0
   11.4803    2.3922   -0.0000 C   0  0  0  0  0  0  0  0  0  0  0  0
   10.1979    0.1480   -0.0000 C   0  0  0  0  0  0  0  0  0  0  0  0
    6.2642    9.8279   -0.0000 C   0  0  0  0  0  0  0  0  0  0  0  0
    3.6747    9.8033   -0.0000 C   0  0  0  0  0  0  0  0  0  0  0  0
   10.1239    7.7933   -0.0000 C   0  0  0  0  0  0  0  0  0  0  0  0
   11.4680    0.9125   -0.0000 C   0  0  0  0  0  0  0  0  0  0  0  0
    6.2272   11.3324   -0.0000 C   0  0  0  0  0  0  0  0  0  0  0  0
    3.6377   11.3077   -0.0000 C   0  0  0  0  0  0  0  0  0  0  0  0
    9.9389    9.3717   -0.0000 C   0  0  0  0  0  0  0  0  0  0  0  0
   11.5296    7.1891   -0.0000 C   0  0  0  0  0  0  0  0  0  0  0  0
    4.9201   12.0846   -0.0000 C   0  0  0  0  0  0  0  0  0  0  0  0
   11.1720   10.2965   -0.0000 C   0  0  0  0  0  0  0  0  0  0  0  0
   12.7751    8.1139   -0.0000 C   0  0  0  0  0  0  0  0  0  0  0  0
   12.5901    9.6800   -0.0000 C   0  0  0  0  0  0  0  0  0  0  0  0
  1  2  1  0  0  0  0
  2  3  2  0  0  0  0
  2  4  1  0  0  0  0
  3  5  1  0  0  0  0
  3  6  1  0  0  0  0
  4  7  2  0  0  0  0
  5  8  2  0  0  0  0
  8  9  1  0  0  0  0
  9 10  2  0  0  0  0
  9 11  1  0  0  0  0
 10 12  1  0  0  0  0
 11 13  2  0  0  0  0
 12 14  1  0  0  0  0
 12 15  2  0  0  0  0
 13 16  1  0  0  0  0
 14 17  1  0  0  0  0
 14 18  1  0  0  0  0
 16 19  2  0  0  0  0
 16 20  1  0  0  0  0
 17 21  1  0  0  0  0
 18 22  1  0  0  0  0
 19 23  1  0  0  0  0
 20 24  2  0  0  0  0
 21 25  2  0  0  0  0
 21 26  1  0  0  0  0
 22 27  1  0  0  0  0
 23 28  2  0  0  0  0
 25 29  1  0  0  0  0
 26 30  2  0  0  0  0
 27 31  2  0  0  0  0
 27 32  1  0  0  0  0
 29 33  2  0  0  0  0
 31 34  1  0  0  0  0
 32 35  2  0  0  0  0
 34 36  2  0  0  0  0
  7  8  1  0  0  0  0
 13 15  1  0  0  0  0
 24 28  1  0  0  0  0
 30 33  1  0  0  0  0
 35 36  1  0  0  0  0
M  END
>  <MolRegNo>
90876

>  <m>
=

>  <Value>
130

>  <Unit>
nM

>  <Type>
Ki

>  <pValue>
6.89

>  <Ligand Efficiency>
0.26

>  <Binding Efficiency>
14.63

>  <Surface Efficiency>
18.94

>  <Assay Index>
67392

>  <Assay Category>


>  <Assay Organism>


>  <Target ID>
19

>  <Target Name>
Estrogen receptor alpha

>  <Target Organism>
Homo sapiens

>  <Target Description>
Target is a single protein chain

>  <Sequence Accession>
P03372

>  <Reference>
Bioorg Med Chem Lett 11 (14), 1939-1942 (2001)

>  <Pubmed ID>
11459665

>  <DOI>
10.1016/s0960-894x(01)00321-3

$$$$
90565
Actelion Java MolfileCreator 1.0

 29 32  0  0  0  0  0  0  0  0999 V2000
    0.0000   -0.0000   -0.0000 O   0  0  0  0  0  0  0  0  0  0  0  0
    1.3369    0.7922   -0.0000 C   0  0  0  0  0  0  0  0  0  0  0  0
    1.3245    2.3644   -0.0000 C   0  0  0  0  0  0  0  0  0  0  0  0
    2.6738    0.0248   -0.0000 C   0  0  0  0  0  0  0  0  0  0  0  0
    2.6615    3.1566   -0.0000 C   0  0  0  0  0  0  0  0  0  0  0  0
    4.0108    0.8170   -0.0000 C   0  0  0  0  0  0  0  0  0  0  0  0
    3.9984    2.3891   -0.0000 C   0  0  0  0  0  0  0  0  0  0  0  0
    5.3353    3.2061   -0.0000 C   0  0  0  0  0  0  0  0  0  0  0  0
    5.3229    4.7535   -0.0000 N   0  0  0  0  0  0  0  0  0  0  0  0
    6.6722    2.4263   -0.0000 C   0  0  0  0  0  0  0  0  0  0  0  0
    6.6351    5.5581   -0.0000 C   0  0  0  0  0  0  0  0  0  0  0  0
    8.0091    3.2309   -0.0000 C   0  0  0  0  0  0  0  0  0  0  0  0
    6.6227    7.1302   -0.0000 N   0  0  0  0  0  0  0  0  0  0  0  0
    7.9968    4.8030   -0.0000 C   0  0  0  0  0  0  0  0  0  0  0  0
    9.3708    2.4634   -0.0000 C   0  0  0  0  0  0  0  0  0  0  0  0
    7.9596    7.9349   -0.0000 C   0  0  0  0  0  0  0  0  0  0  0  0
    5.2610    7.9225   -0.0000 C   0  0  0  0  0  0  0  0  0  0  0  0
   10.6830    3.2556   -0.0000 C   0  0  0  0  0  0  0  0  0  0  0  0
    9.3337    0.9160   -0.0000 C   0  0  0  0  0  0  0  0  0  0  0  0
    9.1975    7.3654   -0.0000 C   0  0  0  0  0  0  0  0  0  0  0  0
   12.0199    2.4882   -0.0000 C   0  0  0  0  0  0  0  0  0  0  0  0
   10.6953    0.1485   -0.0000 C   0  0  0  0  0  0  0  0  0  0  0  0
   10.2992    8.0834   -0.0000 C   0  0  0  0  0  0  0  0  0  0  0  0
   12.0323    0.9284   -0.0000 C   0  0  0  0  0  0  0  0  0  0  0  0
   11.4752    7.4768   -0.0000 C   0  0  0  0  0  0  0  0  0  0  0  0
   10.2373    9.4203   -0.0000 C   0  0  0  0  0  0  0  0  0  0  0  0
   12.5769    8.1948   -0.0000 C   0  0  0  0  0  0  0  0  0  0  0  0
   11.3390   10.1631   -0.0000 C   0  0  0  0  0  0  0  0  0  0  0  0
   12.5150    9.5317   -0.0000 C   0  0  0  0  0  0  0  0  0  0  0  0
  1  2  1  0  0  0  0
  2  3  2  0  0  0  0
  2  4  1  0  0  0  0
  3  5  1  0  0  0  0
  4  6  2  0  0  0  0
  5  7  2  0  0  0  0
  7  8  1  0  0  0  0
  8  9  2  0  0  0  0
  8 10  1  0  0  0  0
  9 11  1  0  0  0  0
 10 12  2  0  0  0  0
 11 13  1  0  0  0  0
 11 14  2  0  0  0  0
 12 15  1  0  0  0  0
 13 16  1  0  0  0  0
 13 17  1  0  0  0  0
 15 18  2  0  0  0  0
 15 19  1  0  0  0  0
 16 20  1  0  0  0  0
 18 21  1  0  0  0  0
 19 22  2  0  0  0  0
 20 23  1  0  0  0  0
 21 24  2  0  0  0  0
 23 25  2  0  0  0  0
 23 26  1  0  0  0  0
 25 27  1  0  0  0  0
 26 28  2  0  0  0  0
 27 29  2  0  0  0  0
  6  7  1  0  0  0  0
 12 14  1  0  0  0  0
 22 24  1  0  0  0  0
 28 29  1  0  0  0  0
M  END
>  <MolRegNo>
90565

>  <m>
=

>  <Value>
490

>  <Unit>
nM

>  <Type>
Ki

>  <pValue>
6.31

>  <Ligand Efficiency>
0.3

>  <Binding Efficiency>
16.58

>  <Surface Efficiency>
17.35

>  <Assay Index>
67392

>  <Assay Category>


>  <Assay Organism>


>  <Target ID>
19

>  <Target Name>
Estrogen receptor alpha

>  <Target Organism>
Homo sapiens

>  <Target Description>
Target is a single protein chain

>  <Sequence Accession>
P03372

>  <Reference>
Bioorg Med Chem Lett 11 (14), 1939-1942 (2001)

>  <Pubmed ID>
11459665

>  <DOI>
10.1016/s0960-894x(01)00321-3

$$$$
91229
Actelion Java MolfileCreator 1.0

 31 34  0  0  0  0  0  0  0  0999 V2000
    0.0000   -0.0000   -0.0000 O   0  0  0  0  0  0  0  0  0  0  0  0
    1.2789    0.7625   -0.0000 C   0  0  0  0  0  0  0  0  0  0  0  0
    2.5579    0.0246   -0.0000 C   0  0  0  0  0  0  0  0  0  0  0  0
    1.2667    2.2628   -0.0000 C   0  0  0  0  0  0  0  0  0  0  0  0
    3.8491    0.7870   -0.0000 C   0  0  0  0  0  0  0  0  0  0  0  0
    2.5456   -1.4511   -0.0000 C   0  0  0  0  0  0  0  0  0  0  0  0
    2.5456    3.0252   -0.0000 C   0  0  0  0  0  0  0  0  0  0  0  0
    3.8368    2.2874   -0.0000 C   0  0  0  0  0  0  0  0  0  0  0  0
    5.1158    3.0744   -0.0000 C   0  0  0  0  0  0  0  0  0  0  0  0
    5.0912    4.5624   -0.0000 N   0  0  0  0  0  0  0  0  0  0  0  0
    6.3947    2.3242   -0.0000 C   0  0  0  0  0  0  0  0  0  0  0  0
    6.3578    5.3249   -0.0000 C   0  0  0  0  0  0  0  0  0  0  0  0
    7.6737    3.0990   -0.0000 C   0  0  0  0  0  0  0  0  0  0  0  0
    6.3333    6.8252   -0.0000 N   0  0  0  0  0  0  0  0  0  0  0  0
    7.6491    4.5993   -0.0000 C   0  0  0  0  0  0  0  0  0  0  0  0
    8.9649    2.3611   -0.0000 C   0  0  0  0  0  0  0  0  0  0  0  0
    7.6122    7.5999   -0.0000 C   0  0  0  0  0  0  0  0  0  0  0  0
    5.0297    7.5753   -0.0000 C   0  0  0  0  0  0  0  0  0  0  0  0
    8.9403    0.8854   -0.0000 C   0  0  0  0  0  0  0  0  0  0  0  0
   10.2193    3.1236   -0.0000 C   0  0  0  0  0  0  0  0  0  0  0  0
    8.9157    6.8621   -0.0000 C   0  0  0  0  0  0  0  0  0  0  0  0
    4.9928    9.0756   -0.0000 C   0  0  0  0  0  0  0  0  0  0  0  0
   10.2316    0.1476   -0.0000 C   0  0  0  0  0  0  0  0  0  0  0  0
   11.5105    2.3980   -0.0000 C   0  0  0  0  0  0  0  0  0  0  0  0
   10.3054    7.5507   -0.0000 N   0  0  0  0  0  0  0  0  0  0  0  0
    8.7805    5.3249   -0.0000 C   0  0  0  0  0  0  0  0  0  0  0  0
    6.2718    9.8381   -0.0000 C   0  0  0  0  0  0  0  0  0  0  0  0
   11.5105    0.9100   -0.0000 C   0  0  0  0  0  0  0  0  0  0  0  0
   11.5843    6.6899   -0.0000 C   0  0  0  0  0  0  0  0  0  0  0  0
   10.0594    4.4517   -0.0000 C   0  0  0  0  0  0  0  0  0  0  0  0
   11.4490    5.1404   -0.0000 C   0  0  0  0  0  0  0  0  0  0  0  0
  1  2  1  0  0  0  0
  2  3  2  0  0  0  0
  2  4  1  0  0  0  0
  3  5  1  0  0  0  0
  3  6  1  0  0  0  0
  4  7  2  0  0  0  0
  5  8  2  0  0  0  0
  8  9  1  0  0  0  0
  9 10  2  0  0  0  0
  9 11  1  0  0  0  0
 10 12  1  0  0  0  0
 11 13  2  0  0  0  0
 12 14  1  0  0  0  0
 12 15  2  0  0  0  0
 13 16  1  0  0  0  0
 14 17  1  0  0  0  0
 14 18  1  0  0  0  0
 16 19  2  0  0  0  0
 16 20  1  0  0  0  0
 17 21  1  0  0  0  0
 18 22  1  0  0  0  0
 19 23  1  0  0  0  0
 20 24  2  0  0  0  0
 21 25  2  0  0  0  0
 21 26  1  0  0  0  0
 22 27  1  0  0  0  0
 23 28  2  0  0  0  0
 25 29  1  0  0  0  0
 26 30  2  0  0  0  0
 29 31  2  0  0  0  0
  7  8  1  0  0  0  0
 13 15  1  0  0  0  0
 24 28  1  0  0  0  0
 30 31  1  0  0  0  0
M  END
>  <MolRegNo>
91229

>  <m>
=

>  <Value>
70

>  <Unit>
nM

>  <Type>
Ki

>  <pValue>
7.16

>  <Ligand Efficiency>
0.32

>  <Binding Efficiency>
17.47

>  <Surface Efficiency>
14.53

>  <Assay Index>
67392

>  <Assay Category>


>  <Assay Organism>


>  <Target ID>
19

>  <Target Name>
Estrogen receptor alpha

>  <Target Organism>
Homo sapiens

>  <Target Description>
Target is a single protein chain

>  <Sequence Accession>
P03372

>  <Reference>
Bioorg Med Chem Lett 11 (14), 1939-1942 (2001)

>  <Pubmed ID>
11459665

>  <DOI>
10.1016/s0960-894x(01)00321-3

$$$$
1
Actelion Java MolfileCreator 1.0

 24 26  0  0  0  0  0  0  0  0999 V2000
    0.0000   -0.0000   -0.0000 Cl  0  0  0  0  0  0  0  0  0  0  0  0
    1.2982    0.7671   -0.0000 C   0  0  0  0  0  0  0  0  0  0  0  0
    1.2864    2.2777   -0.0000 C   0  0  0  0  0  0  0  0  0  0  0  0
    2.5846    0.0236   -0.0000 C   0  0  0  0  0  0  0  0  0  0  0  0
   -0.0118    3.0331   -0.0000 C   0  0  0  0  0  0  0  0  0  0  0  0
    2.5492    3.0331   -0.0000 C   0  0  0  0  0  0  0  0  0  0  0  0
    3.8592    0.7907   -0.0000 C   0  0  0  0  0  0  0  0  0  0  0  0
   -1.3218    2.3013   -0.0000 O   0  0  0  0  0  0  0  0  0  0  0  0
   -0.0236    4.5437   -0.0000 C   0  0  0  0  0  0  0  0  0  0  0  0
    3.8474    2.3013   -0.0000 C   0  0  0  0  0  0  0  0  0  0  0  0
   -1.3336    5.2990   -0.0000 C   0  0  0  0  0  0  0  0  0  0  0  0
    1.2510    5.2990   -0.0000 C   0  0  0  0  0  0  0  0  0  0  0  0
   -1.3454    6.8096   -0.0000 C   0  0  0  0  0  0  0  0  0  0  0  0
   -2.6554    4.5673   -0.0000 C   0  0  0  0  0  0  0  0  0  0  0  0
    1.2392    6.8096   -0.0000 C   0  0  0  0  0  0  0  0  0  0  0  0
   -0.0472    7.5531   -0.0000 C   0  0  0  0  0  0  0  0  0  0  0  0
   -0.0590    9.0637   -0.0000 N   0  0  0  0  0  0  0  0  0  0  0  0
    1.2274    9.8191   -0.0000 N   0  0  0  0  0  0  0  0  0  0  0  0
   -1.3454    9.8191   -0.0000 C   0  0  0  0  0  0  0  0  0  0  0  0
    1.2156   11.3297   -0.0000 C   0  0  0  0  0  0  0  0  0  0  0  0
   -2.6672    9.0992   -0.0000 O   0  0  0  0  0  0  0  0  0  0  0  0
   -1.3572   11.3297   -0.0000 N   0  0  0  0  0  0  0  0  0  0  0  0
   -0.0944   12.0850   -0.0000 C   0  0  0  0  0  0  0  0  0  0  0  0
   -0.1062   13.5956   -0.0000 O   0  0  0  0  0  0  0  0  0  0  0  0
  1  2  1  0  0  0  0
  2  3  2  0  0  0  0
  2  4  1  0  0  0  0
  3  5  1  0  0  0  0
  3  6  1  0  0  0  0
  4  7  2  0  0  0  0
  5  8  2  0  0  0  0
  5  9  1  0  0  0  0
  6 10  2  0  0  0  0
  9 11  2  0  0  0  0
  9 12  1  0  0  0  0
 11 13  1  0  0  0  0
 11 14  1  0  0  0  0
 12 15  2  0  0  0  0
 13 16  2  0  0  0  0
 16 17  1  0  0  0  0
 17 18  1  0  0  0  0
 17 19  1  0  0  0  0
 18 20  2  0  0  0  0
 19 21  2  0  0  0  0
 19 22  1  0  0  0  0
 20 23  1  0  0  0  0
 23 24  2  0  0  0  0
  7 10  1  0  0  0  0
 15 16  1  0  0  0  0
 22 23  1  0  0  0  0
M  END
>  <MolRegNo>
1

>  <m>
=

>  <Value>
0.4

>  <Unit>
nM

>  <Type>
Ki

>  <pValue>
9.4

>  <Ligand Efficiency>
0

>  <Binding Efficiency>
0

>  <Surface Efficiency>
0

>  <Assay Index>
67399

>  <Assay Category>


>  <Assay Organism>
Homo sapiens

>  <Target ID>
19

>  <Target Name>
Estrogen receptor alpha

>  <Target Organism>
Homo sapiens

>  <Target Description>
Target is a single protein chain

>  <Sequence Accession>
P03372

>  <Reference>
J Med Chem 42 (9), 1501-1504 (1999)

>  <Pubmed ID>
10229620

>  <DOI>
10.1021/jm9900725

$$$$
90684
Actelion Java MolfileCreator 1.0

 33 37  0  0  0  0  0  0  0  0999 V2000
    0.0000   -0.0000   -0.0000 O   0  0  0  0  0  0  0  0  0  0  0  0
    1.2944    0.7600   -0.0000 C   0  0  0  0  0  0  0  0  0  0  0  0
    2.5769    0.0238   -0.0000 C   0  0  0  0  0  0  0  0  0  0  0  0
    1.2825    2.2682   -0.0000 C   0  0  0  0  0  0  0  0  0  0  0  0
    3.8713    0.7838   -0.0000 C   0  0  0  0  0  0  0  0  0  0  0  0
    2.5650   -1.4725   -0.0000 C   0  0  0  0  0  0  0  0  0  0  0  0
    2.5650    3.0282   -0.0000 C   0  0  0  0  0  0  0  0  0  0  0  0
    3.8594    2.3038   -0.0000 C   0  0  0  0  0  0  0  0  0  0  0  0
    5.1301    3.0638   -0.0000 C   0  0  0  0  0  0  0  0  0  0  0  0
    5.1063    4.5601   -0.0000 N   0  0  0  0  0  0  0  0  0  0  0  0
    6.4245    2.3275   -0.0000 C   0  0  0  0  0  0  0  0  0  0  0  0
    6.3770    5.3320   -0.0000 C   0  0  0  0  0  0  0  0  0  0  0  0
    7.7189    3.0875   -0.0000 C   0  0  0  0  0  0  0  0  0  0  0  0
    6.3651    6.8401   -0.0000 N   0  0  0  0  0  0  0  0  0  0  0  0
    7.6832    4.6076   -0.0000 C   0  0  0  0  0  0  0  0  0  0  0  0
    9.0133    2.3513   -0.0000 C   0  0  0  0  0  0  0  0  0  0  0  0
    5.0470    7.6001   -0.0000 C   0  0  0  0  0  0  0  0  0  0  0  0
    7.6595    7.6120   -0.0000 C   0  0  0  0  0  0  0  0  0  0  0  0
    8.9895    0.8669   -0.0000 C   0  0  0  0  0  0  0  0  0  0  0  0
   10.2839    3.1113   -0.0000 C   0  0  0  0  0  0  0  0  0  0  0  0
    5.0232    9.1201   -0.0000 C   0  0  0  0  0  0  0  0  0  0  0  0
    7.6239    9.1320   -0.0000 C   0  0  0  0  0  0  0  0  0  0  0  0
   10.2839    0.1306   -0.0000 C   0  0  0  0  0  0  0  0  0  0  0  0
   11.5783    2.3869   -0.0000 C   0  0  0  0  0  0  0  0  0  0  0  0
    6.3176    9.8801   -0.0000 C   0  0  0  0  0  0  0  0  0  0  0  0
   11.5545    0.8906   -0.0000 C   0  0  0  0  0  0  0  0  0  0  0  0
    6.2938   11.4002   -0.0000 C   0  0  0  0  0  0  0  0  0  0  0  0
    7.5882   12.1602   -0.0000 C   0  0  0  0  0  0  0  0  0  0  0  0
    8.8826   11.4358   -0.0000 C   0  0  0  0  0  0  0  0  0  0  0  0
    7.5526   13.6802   -0.0000 C   0  0  0  0  0  0  0  0  0  0  0  0
   10.1770   12.1958   -0.0000 C   0  0  0  0  0  0  0  0  0  0  0  0
    8.8470   14.4640   -0.0000 C   0  0  0  0  0  0  0  0  0  0  0  0
   10.1533   13.7158   -0.0000 C   0  0  0  0  0  0  0  0  0  0  0  0
  1  2  1  0  0  0  0
  2  3  2  0  0  0  0
  2  4  1  0  0  0  0
  3  5  1  0  0  0  0
  3  6  1  0  0  0  0
  4  7  2  0  0  0  0
  5  8  2  0  0  0  0
  8  9  1  0  0  0  0
  9 10  2  0  0  0  0
  9 11  1  0  0  0  0
 10 12  1  0  0  0  0
 11 13  2  0  0  0  0
 12 14  1  0  0  0  0
 12 15  2  0  0  0  0
 13 16  1  0  0  0  0
 14 17  1  0  0  0  0
 14 18  1  0  0  0  0
 16 19  2  0  0  0  0
 16 20  1  0  0  0  0
 17 21  1  0  0  0  0
 18 22  1  0  0  0  0
 19 23  1  0  0  0  0
 20 24  2  0  0  0  0
 21 25  1  0  0  0  0
 23 26  2  0  0  0  0
 25 27  1  0  0  0  0
 27 28  1  0  0  0  0
 28 29  2  0  0  0  0
 28 30  1  0  0  0  0
 29 31  1  0  0  0  0
 30 32  2  0  0  0  0
 31 33  2  0  0  0  0
  7  8  1  0  0  0  0
 13 15  1  0  0  0  0
 22 25  1  0  0  0  0
 24 26  1  0  0  0  0
 32 33  1  0  0  0  0
M  END
>  <MolRegNo>
90684

>  <m>
=

>  <Value>
20

>  <Unit>
nM

>  <Type>
Ki

>  <pValue>
7.7

>  <Ligand Efficiency>
0.32

>  <Binding Efficiency>
17.72

>  <Surface Efficiency>
21.17

>  <Assay Index>
67392

>  <Assay Category>


>  <Assay Organism>


>  <Target ID>
19

>  <Target Name>
Estrogen receptor alpha

>  <Target Organism>
Homo sapiens

>  <Target Description>
Target is a single protein chain

>  <Sequence Accession>
P03372

>  <Reference>
Bioorg Med Chem Lett 11 (14), 1939-1942 (2001)

>  <Pubmed ID>
11459665

>  <DOI>
10.1016/s0960-894x(01)00321-3

$$$$
91454
Actelion Java MolfileCreator 1.0

 30 33  0  0  0  0  0  0  0  0999 V2000
    0.0000   -0.0000   -0.0000 O   0  0  0  0  0  0  0  0  0  0  0  0
    1.3000    0.7604   -0.0000 C   0  0  0  0  0  0  0  0  0  0  0  0
    2.5754    0.0245   -0.0000 C   0  0  0  0  0  0  0  0  0  0  0  0
    1.2877    2.2565   -0.0000 C   0  0  0  0  0  0  0  0  0  0  0  0
    3.8508    0.7849   -0.0000 C   0  0  0  0  0  0  0  0  0  0  0  0
    2.5631   -1.4471   -0.0000 C   0  0  0  0  0  0  0  0  0  0  0  0
    2.5631    3.0291   -0.0000 C   0  0  0  0  0  0  0  0  0  0  0  0
    3.8385    2.3056   -0.0000 C   0  0  0  0  0  0  0  0  0  0  0  0
    5.1140    3.0659   -0.0000 C   0  0  0  0  0  0  0  0  0  0  0  0
    5.0894    4.5621   -0.0000 N   0  0  0  0  0  0  0  0  0  0  0  0
    6.3894    2.3301   -0.0000 C   0  0  0  0  0  0  0  0  0  0  0  0
    6.3526    5.3225   -0.0000 C   0  0  0  0  0  0  0  0  0  0  0  0
    7.6648    3.0905   -0.0000 C   0  0  0  0  0  0  0  0  0  0  0  0
    6.3403    6.8186   -0.0000 N   0  0  0  0  0  0  0  0  0  0  0  0
    7.6526    4.5989   -0.0000 C   0  0  0  0  0  0  0  0  0  0  0  0
    8.9525    2.3669   -0.0000 C   0  0  0  0  0  0  0  0  0  0  0  0
    7.6158    7.5790   -0.0000 C   0  0  0  0  0  0  0  0  0  0  0  0
    5.0281    7.5790   -0.0000 C   0  0  0  0  0  0  0  0  0  0  0  0
    8.9280    0.8953   -0.0000 C   0  0  0  0  0  0  0  0  0  0  0  0
   10.2157    3.1395   -0.0000 C   0  0  0  0  0  0  0  0  0  0  0  0
    8.8912    6.8554   -0.0000 C   0  0  0  0  0  0  0  0  0  0  0  0
   10.2157    0.1717   -0.0000 C   0  0  0  0  0  0  0  0  0  0  0  0
   11.4911    2.4037   -0.0000 C   0  0  0  0  0  0  0  0  0  0  0  0
   10.1421    7.7752   -0.0000 C   0  0  0  0  0  0  0  0  0  0  0  0
   11.4911    0.9320   -0.0000 C   0  0  0  0  0  0  0  0  0  0  0  0
    9.9581    9.3450   -0.0000 N   0  0  0  0  0  0  0  0  0  0  0  0
   11.5524    7.1743   -0.0000 C   0  0  0  0  0  0  0  0  0  0  0  0
   11.1968   10.2770   -0.0000 C   0  0  0  0  0  0  0  0  0  0  0  0
   12.8033    8.0941   -0.0000 C   0  0  0  0  0  0  0  0  0  0  0  0
   12.6071    9.6515   -0.0000 C   0  0  0  0  0  0  0  0  0  0  0  0
  1  2  1  0  0  0  0
  2  3  2  0  0  0  0
  2  4  1  0  0  0  0
  3  5  1  0  0  0  0
  3  6  1  0  0  0  0
  4  7  2  0  0  0  0
  5  8  2  0  0  0  0
  8  9  1  0  0  0  0
  9 10  2  0  0  0  0
  9 11  1  0  0  0  0
 10 12  1  0  0  0  0
 11 13  2  0  0  0  0
 12 14  1  0  0  0  0
 12 15  2  0  0  0  0
 13 16  1  0  0  0  0
 14 17  1  0  0  0  0
 14 18  1  0  0  0  0
 16 19  2  0  0  0  0
 16 20  1  0  0  0  0
 17 21  1  0  0  0  0
 19 22  1  0  0  0  0
 20 23  2  0  0  0  0
 21 24  1  0  0  0  0
 22 25  2  0  0  0  0
 24 26  2  0  0  0  0
 24 27  1  0  0  0  0
 26 28  1  0  0  0  0
 27 29  2  0  0  0  0
 28 30  2  0  0  0  0
  7  8  1  0  0  0  0
 13 15  1  0  0  0  0
 23 25  1  0  0  0  0
 29 30  1  0  0  0  0
M  END
>  <MolRegNo>
91454

>  <m>
=

>  <Value>
1260

>  <Unit>
nM

>  <Type>
Ki

>  <pValue>
5.9

>  <Ligand Efficiency>
0.27

>  <Binding Efficiency>
14.92

>  <Surface Efficiency>
11.98

>  <Assay Index>
67392

>  <Assay Category>


>  <Assay Organism>


>  <Target ID>
19

>  <Target Name>
Estrogen receptor alpha

>  <Target Organism>
Homo sapiens

>  <Target Description>
Target is a single protein chain

>  <Sequence Accession>
P03372

>  <Reference>
Bioorg Med Chem Lett 11 (14), 1939-1942 (2001)

>  <Pubmed ID>
11459665

>  <DOI>
10.1016/s0960-894x(01)00321-3

$$$$
90877
Actelion Java MolfileCreator 1.0

 30 33  0  0  0  0  0  0  0  0999 V2000
    0.0000   -0.0000   -0.0000 O   0  0  0  0  0  0  0  0  0  0  0  0
    1.2966    0.7584   -0.0000 C   0  0  0  0  0  0  0  0  0  0  0  0
    2.5688    0.0245   -0.0000 C   0  0  0  0  0  0  0  0  0  0  0  0
    1.2844    2.2630   -0.0000 C   0  0  0  0  0  0  0  0  0  0  0  0
    3.8531    0.7829   -0.0000 C   0  0  0  0  0  0  0  0  0  0  0  0
    2.5565   -1.4556   -0.0000 C   0  0  0  0  0  0  0  0  0  0  0  0
    2.5565    3.0336   -0.0000 C   0  0  0  0  0  0  0  0  0  0  0  0
    3.8409    2.2997   -0.0000 C   0  0  0  0  0  0  0  0  0  0  0  0
    5.1131    3.0580   -0.0000 C   0  0  0  0  0  0  0  0  0  0  0  0
    5.0764    4.5626   -0.0000 N   0  0  0  0  0  0  0  0  0  0  0  0
    6.3852    2.3241   -0.0000 C   0  0  0  0  0  0  0  0  0  0  0  0
    6.3485    5.3210   -0.0000 C   0  0  0  0  0  0  0  0  0  0  0  0
    7.6573    3.0825   -0.0000 C   0  0  0  0  0  0  0  0  0  0  0  0
    6.3240    6.8256   -0.0000 N   0  0  0  0  0  0  0  0  0  0  0  0
    7.6451    4.5993   -0.0000 C   0  0  0  0  0  0  0  0  0  0  0  0
    8.9295    2.3608   -0.0000 C   0  0  0  0  0  0  0  0  0  0  0  0
    7.5962    7.5962   -0.0000 C   0  0  0  0  0  0  0  0  0  0  0  0
    5.0030    7.5840   -0.0000 C   0  0  0  0  0  0  0  0  0  0  0  0
   10.2016    3.1314   -0.0000 C   0  0  0  0  0  0  0  0  0  0  0  0
    8.9173    0.8807   -0.0000 C   0  0  0  0  0  0  0  0  0  0  0  0
    8.8683    6.8745   -0.0000 C   0  0  0  0  0  0  0  0  0  0  0  0
    4.9785    9.0885   -0.0000 C   0  0  0  0  0  0  0  0  0  0  0  0
   11.4860    2.3975   -0.0000 C   0  0  0  0  0  0  0  0  0  0  0  0
   10.1894    0.1590   -0.0000 C   0  0  0  0  0  0  0  0  0  0  0  0
    8.8561    5.3332   -0.0000 C   0  0  0  0  0  0  0  0  0  0  0  0
   10.2139    7.6818   -0.0000 C   0  0  0  0  0  0  0  0  0  0  0  0
   11.4738    0.9174   -0.0000 C   0  0  0  0  0  0  0  0  0  0  0  0
   10.2016    4.5504   -0.0000 C   0  0  0  0  0  0  0  0  0  0  0  0
   11.5472    6.9112   -0.0000 C   0  0  0  0  0  0  0  0  0  0  0  0
   11.5349    5.3455   -0.0000 N   0  0  0  0  0  0  0  0  0  0  0  0
  1  2  1  0  0  0  0
  2  3  2  0  0  0  0
  2  4  1  0  0  0  0
  3  5  1  0  0  0  0
  3  6  1  0  0  0  0
  4  7  2  0  0  0  0
  5  8  2  0  0  0  0
  8  9  1  0  0  0  0
  9 10  2  0  0  0  0
  9 11  1  0  0  0  0
 10 12  1  0  0  0  0
 11 13  2  0  0  0  0
 12 14  1  0  0  0  0
 12 15  2  0  0  0  0
 13 16  1  0  0  0  0
 14 17  1  0  0  0  0
 14 18  1  0  0  0  0
 16 19  2  0  0  0  0
 16 20  1  0  0  0  0
 17 21  1  0  0  0  0
 18 22  1  0  0  0  0
 19 23  1  0  0  0  0
 20 24  2  0  0  0  0
 21 25  2  0  0  0  0
 21 26  1  0  0  0  0
 23 27  2  0  0  0  0
 25 28  1  0  0  0  0
 26 29  2  0  0  0  0
 28 30  2  0  0  0  0
  7  8  1  0  0  0  0
 13 15  1  0  0  0  0
 24 27  1  0  0  0  0
 29 30  1  0  0  0  0
M  END
>  <MolRegNo>
90877

>  <m>
=

>  <Value>
830

>  <Unit>
nM

>  <Type>
Ki

>  <pValue>
6.08

>  <Ligand Efficiency>
0.28

>  <Binding Efficiency>
15.37

>  <Surface Efficiency>
12.35

>  <Assay Index>
67392

>  <Assay Category>


>  <Assay Organism>


>  <Target ID>
19

>  <Target Name>
Estrogen receptor alpha

>  <Target Organism>
Homo sapiens

>  <Target Description>
Target is a single protein chain

>  <Sequence Accession>
P03372

>  <Reference>
Bioorg Med Chem Lett 11 (14), 1939-1942 (2001)

>  <Pubmed ID>
11459665

>  <DOI>
10.1016/s0960-894x(01)00321-3

$$$$
90829
Actelion Java MolfileCreator 1.0

 30 33  0  0  0  0  0  0  0  0999 V2000
    0.0000   -0.0000   -0.0000 O   0  0  0  0  0  0  0  0  0  0  0  0
    1.3464    0.7906   -0.0000 C   0  0  0  0  0  0  0  0  0  0  0  0
    2.6805    0.0247   -0.0000 C   0  0  0  0  0  0  0  0  0  0  0  0
    1.3341    2.3594   -0.0000 C   0  0  0  0  0  0  0  0  0  0  0  0
    4.0146    0.8153   -0.0000 C   0  0  0  0  0  0  0  0  0  0  0  0
    2.6682    3.1499   -0.0000 C   0  0  0  0  0  0  0  0  0  0  0  0
    4.0023    2.3841   -0.0000 C   0  0  0  0  0  0  0  0  0  0  0  0
    5.3364    3.1870   -0.0000 C   0  0  0  0  0  0  0  0  0  0  0  0
    5.3117    4.7558   -0.0000 N   0  0  0  0  0  0  0  0  0  0  0  0
    6.6705    2.4211   -0.0000 C   0  0  0  0  0  0  0  0  0  0  0  0
    6.6334    5.5587   -0.0000 C   0  0  0  0  0  0  0  0  0  0  0  0
    8.0045    3.2117   -0.0000 C   0  0  0  0  0  0  0  0  0  0  0  0
    6.6210    7.1275   -0.0000 N   0  0  0  0  0  0  0  0  0  0  0  0
    7.9922    4.8052   -0.0000 C   0  0  0  0  0  0  0  0  0  0  0  0
    9.3510    2.4582   -0.0000 C   0  0  0  0  0  0  0  0  0  0  0  0
    7.9551    7.9304   -0.0000 C   0  0  0  0  0  0  0  0  0  0  0  0
    5.2499    7.9181   -0.0000 C   0  0  0  0  0  0  0  0  0  0  0  0
   10.6727    3.2488   -0.0000 C   0  0  0  0  0  0  0  0  0  0  0  0
    9.3263    0.9141   -0.0000 C   0  0  0  0  0  0  0  0  0  0  0  0
    9.1904    7.3622   -0.0000 C   0  0  0  0  0  0  0  0  0  0  0  0
   12.0068    2.4829   -0.0000 C   0  0  0  0  0  0  0  0  0  0  0  0
   10.6480    4.8175   -0.0000 C   0  0  0  0  0  0  0  0  0  0  0  0
   10.6727    0.1482   -0.0000 C   0  0  0  0  0  0  0  0  0  0  0  0
   10.2898    8.0787   -0.0000 C   0  0  0  0  0  0  0  0  0  0  0  0
   12.0068    0.9265   -0.0000 C   0  0  0  0  0  0  0  0  0  0  0  0
   11.4633    7.4734   -0.0000 C   0  0  0  0  0  0  0  0  0  0  0  0
   10.2280    9.4127   -0.0000 C   0  0  0  0  0  0  0  0  0  0  0  0
   12.5627    8.1898   -0.0000 C   0  0  0  0  0  0  0  0  0  0  0  0
   11.3274   10.1416   -0.0000 C   0  0  0  0  0  0  0  0  0  0  0  0
   12.5009    9.5239   -0.0000 C   0  0  0  0  0  0  0  0  0  0  0  0
  1  2  1  0  0  0  0
  2  3  2  0  0  0  0
  2  4  1  0  0  0  0
  3  5  1  0  0  0  0
  4  6  2  0  0  0  0
  5  7  2  0  0  0  0
  7  8  1  0  0  0  0
  8  9  2  0  0  0  0
  8 10  1  0  0  0  0
  9 11  1  0  0  0  0
 10 12  2  0  0  0  0
 11 13  1  0  0  0  0
 11 14  2  0  0  0  0
 12 15  1  0  0  0  0
 13 16  1  0  0  0  0
 13 17  1  0  0  0  0
 15 18  2  0  0  0  0
 15 19  1  0  0  0  0
 16 20  1  0  0  0  0
 18 21  1  0  0  0  0
 18 22  1  0  0  0  0
 19 23  2  0  0  0  0
 20 24  1  0  0  0  0
 21 25  2  0  0  0  0
 24 26  2  0  0  0  0
 24 27  1  0  0  0  0
 26 28  1  0  0  0  0
 27 29  2  0  0  0  0
 28 30  2  0  0  0  0
  6  7  1  0  0  0  0
 12 14  1  0  0  0  0
 23 25  1  0  0  0  0
 29 30  1  0  0  0  0
M  END
>  <MolRegNo>
90829

>  <m>
=

>  <Value>
650

>  <Unit>
nM

>  <Type>
Ki

>  <pValue>
6.19

>  <Ligand Efficiency>
0.28

>  <Binding Efficiency>
15.68

>  <Surface Efficiency>
17.02

>  <Assay Index>
67392

>  <Assay Category>


>  <Assay Organism>


>  <Target ID>
19

>  <Target Name>
Estrogen receptor alpha

>  <Target Organism>
Homo sapiens

>  <Target Description>
Target is a single protein chain

>  <Sequence Accession>
P03372

>  <Reference>
Bioorg Med Chem Lett 11 (14), 1939-1942 (2001)

>  <Pubmed ID>
11459665

>  <DOI>
10.1016/s0960-894x(01)00321-3

$$$$
90777
Actelion Java MolfileCreator 1.0

 26 28  0  0  0  0  0  0  0  0999 V2000
    0.0000   -0.0000   -0.0000 O   0  0  0  0  0  0  0  0  0  0  0  0
    1.3182    0.7740   -0.0000 C   0  0  0  0  0  0  0  0  0  0  0  0
    2.6243    0.0242   -0.0000 C   0  0  0  0  0  0  0  0  0  0  0  0
    1.3061    2.3099   -0.0000 C   0  0  0  0  0  0  0  0  0  0  0  0
    3.9304    0.7982   -0.0000 C   0  0  0  0  0  0  0  0  0  0  0  0
    2.6122   -1.4875   -0.0000 C   0  0  0  0  0  0  0  0  0  0  0  0
    2.6122    3.0838   -0.0000 C   0  0  0  0  0  0  0  0  0  0  0  0
    3.9183    2.3340   -0.0000 C   0  0  0  0  0  0  0  0  0  0  0  0
    5.2244    3.1201   -0.0000 C   0  0  0  0  0  0  0  0  0  0  0  0
    5.2002    4.6560   -0.0000 N   0  0  0  0  0  0  0  0  0  0  0  0
    6.5305    2.3703   -0.0000 C   0  0  0  0  0  0  0  0  0  0  0  0
    6.4942    5.4421   -0.0000 C   0  0  0  0  0  0  0  0  0  0  0  0
    7.8366    3.1443   -0.0000 C   0  0  0  0  0  0  0  0  0  0  0  0
    6.4821    6.9779   -0.0000 N   0  0  0  0  0  0  0  0  0  0  0  0
    7.8245    4.7044   -0.0000 C   0  0  0  0  0  0  0  0  0  0  0  0
    9.1548    2.4066   -0.0000 C   0  0  0  0  0  0  0  0  0  0  0  0
    7.7882    7.7640   -0.0000 C   0  0  0  0  0  0  0  0  0  0  0  0
    5.1397    7.7519   -0.0000 C   0  0  0  0  0  0  0  0  0  0  0  0
   10.4488    3.1806   -0.0000 C   0  0  0  0  0  0  0  0  0  0  0  0
    9.1306    0.8949   -0.0000 C   0  0  0  0  0  0  0  0  0  0  0  0
    8.9976    7.2077   -0.0000 C   0  0  0  0  0  0  0  0  0  0  0  0
   11.7549    2.4308   -0.0000 C   0  0  0  0  0  0  0  0  0  0  0  0
   10.4488    0.1451   -0.0000 C   0  0  0  0  0  0  0  0  0  0  0  0
    9.0822    5.8653   -0.0000 C   0  0  0  0  0  0  0  0  0  0  0  0
   10.0739    7.9091   -0.0000 C   0  0  0  0  0  0  0  0  0  0  0  0
   11.7549    0.9070   -0.0000 C   0  0  0  0  0  0  0  0  0  0  0  0
  1  2  1  0  0  0  0
  2  3  2  0  0  0  0
  2  4  1  0  0  0  0
  3  5  1  0  0  0  0
  3  6  1  0  0  0  0
  4  7  2  0  0  0  0
  5  8  2  0  0  0  0
  8  9  1  0  0  0  0
  9 10  2  0  0  0  0
  9 11  1  0  0  0  0
 10 12  1  0  0  0  0
 11 13  2  0  0  0  0
 12 14  1  0  0  0  0
 12 15  2  0  0  0  0
 13 16  1  0  0  0  0
 14 17  1  0  0  0  0
 14 18  1  0  0  0  0
 16 19  2  0  0  0  0
 16 20  1  0  0  0  0
 17 21  1  0  0  0  0
 19 22  1  0  0  0  0
 20 23  2  0  0  0  0
 21 24  1  0  0  0  0
 21 25  1  0  0  0  0
 22 26  2  0  0  0  0
  7  8  1  0  0  0  0
 13 15  1  0  0  0  0
 23 26  1  0  0  0  0
M  END
>  <MolRegNo>
90777

>  <m>
=

>  <Value>
210

>  <Unit>
nM

>  <Type>
Ki

>  <pValue>
6.68

>  <Ligand Efficiency>
0.35

>  <Binding Efficiency>
19.27

>  <Surface Efficiency>
18.37

>  <Assay Index>
67392

>  <Assay Category>


>  <Assay Organism>


>  <Target ID>
19

>  <Target Name>
Estrogen receptor alpha

>  <Target Organism>
Homo sapiens

>  <Target Description>
Target is a single protein chain

>  <Sequence Accession>
P03372

>  <Reference>
Bioorg Med Chem Lett 11 (14), 1939-1942 (2001)

>  <Pubmed ID>
11459665

>  <DOI>
10.1016/s0960-894x(01)00321-3

$$$$
90721
Actelion Java MolfileCreator 1.0

 30 33  0  0  0  0  0  0  0  0999 V2000
    0.0000   -0.0000   -0.0000 O   0  0  0  0  0  0  0  0  0  0  0  0
    1.2999    0.7532   -0.0000 C   0  0  0  0  0  0  0  0  0  0  0  0
    1.2878    2.2597   -0.0000 C   0  0  0  0  0  0  0  0  0  0  0  0
    2.5755    0.0243   -0.0000 C   0  0  0  0  0  0  0  0  0  0  0  0
    2.5634    3.0129   -0.0000 C   0  0  0  0  0  0  0  0  0  0  0  0
    3.8512    0.7775   -0.0000 C   0  0  0  0  0  0  0  0  0  0  0  0
    3.8390    2.2840   -0.0000 C   0  0  0  0  0  0  0  0  0  0  0  0
    5.1146    3.0493   -0.0000 C   0  0  0  0  0  0  0  0  0  0  0  0
    5.0903    4.5436   -0.0000 N   0  0  0  0  0  0  0  0  0  0  0  0
    6.3903    2.3204   -0.0000 C   0  0  0  0  0  0  0  0  0  0  0  0
    6.3538    5.3090   -0.0000 C   0  0  0  0  0  0  0  0  0  0  0  0
    7.6659    3.0736   -0.0000 C   0  0  0  0  0  0  0  0  0  0  0  0
    6.3417    6.8155   -0.0000 N   0  0  0  0  0  0  0  0  0  0  0  0
    7.6537    4.5922   -0.0000 C   0  0  0  0  0  0  0  0  0  0  0  0
    8.9537    2.3569   -0.0000 C   0  0  0  0  0  0  0  0  0  0  0  0
    7.6051    7.5930   -0.0000 C   0  0  0  0  0  0  0  0  0  0  0  0
    5.0296    7.5687   -0.0000 C   0  0  0  0  0  0  0  0  0  0  0  0
   10.2171    3.1101   -0.0000 C   0  0  0  0  0  0  0  0  0  0  0  0
    8.9294    0.8747   -0.0000 C   0  0  0  0  0  0  0  0  0  0  0  0
    9.0508    7.0463   -0.0000 C   0  0  0  0  0  0  0  0  0  0  0  0
    5.0053    9.0751   -0.0000 C   0  0  0  0  0  0  0  0  0  0  0  0
   11.4928    2.3812   -0.0000 C   0  0  0  0  0  0  0  0  0  0  0  0
   10.2171    0.1458   -0.0000 C   0  0  0  0  0  0  0  0  0  0  0  0
   10.2536    8.0546   -0.0000 N   0  0  0  0  0  0  0  0  0  0  0  0
    9.2817    5.5277   -0.0000 C   0  0  0  0  0  0  0  0  0  0  0  0
    6.2809    9.8405   -0.0000 C   0  0  0  0  0  0  0  0  0  0  0  0
   11.4928    0.8990   -0.0000 C   0  0  0  0  0  0  0  0  0  0  0  0
   11.6871    7.5079   -0.0000 C   0  0  0  0  0  0  0  0  0  0  0  0
   10.7395    4.9810   -0.0000 C   0  0  0  0  0  0  0  0  0  0  0  0
   11.9180    5.9772   -0.0000 C   0  0  0  0  0  0  0  0  0  0  0  0
  1  2  1  0  0  0  0
  2  3  2  0  0  0  0
  2  4  1  0  0  0  0
  3  5  1  0  0  0  0
  4  6  2  0  0  0  0
  5  7  2  0  0  0  0
  7  8  1  0  0  0  0
  8  9  2  0  0  0  0
  8 10  1  0  0  0  0
  9 11  1  0  0  0  0
 10 12  2  0  0  0  0
 11 13  1  0  0  0  0
 11 14  2  0  0  0  0
 12 15  1  0  0  0  0
 13 16  1  0  0  0  0
 13 17  1  0  0  0  0
 15 18  2  0  0  0  0
 15 19  1  0  0  0  0
 16 20  1  0  0  0  0
 17 21  1  0  0  0  0
 18 22  1  0  0  0  0
 19 23  2  0  0  0  0
 20 24  2  0  0  0  0
 20 25  1  0  0  0  0
 21 26  1  0  0  0  0
 22 27  2  0  0  0  0
 24 28  1  0  0  0  0
 25 29  2  0  0  0  0
 28 30  2  0  0  0  0
  6  7  1  0  0  0  0
 12 14  1  0  0  0  0
 23 27  1  0  0  0  0
 29 30  1  0  0  0  0
M  END
>  <MolRegNo>
90721

>  <m>
=

>  <Value>
180

>  <Unit>
nM

>  <Type>
Ki

>  <pValue>
6.75

>  <Ligand Efficiency>
0.31

>  <Binding Efficiency>
17.05

>  <Surface Efficiency>
13.69

>  <Assay Index>
67392

>  <Assay Category>


>  <Assay Organism>


>  <Target ID>
19

>  <Target Name>
Estrogen receptor alpha

>  <Target Organism>
Homo sapiens

>  <Target Description>
Target is a single protein chain

>  <Sequence Accession>
P03372

>  <Reference>
Bioorg Med Chem Lett 11 (14), 1939-1942 (2001)

>  <Pubmed ID>
11459665

>  <DOI>
10.1016/s0960-894x(01)00321-3

$$$$
252641
Actelion Java MolfileCreator 1.0

 33 36  0  0  0  0  0  0  0  0999 V2000
    0.0000   -0.0000   -0.0000 S   0  0  0  0  0  0  0  0  0  0  0  0
   -1.3165    0.7591   -0.0000 C   0  0  0  0  0  0  0  0  0  0  0  0
    1.2809    0.7709   -0.0000 C   0  0  0  0  0  0  0  0  0  0  0  0
   -1.3284    2.2653   -0.0000 N   0  0  0  0  0  0  0  0  0  0  0  0
   -2.6330    0.0237   -0.0000 N   0  0  0  0  0  0  0  0  0  0  0  0
    2.5618    0.0474   -0.0000 C   0  0  0  0  0  0  0  0  0  0  0  0
   -2.6449    3.0244   -0.0000 C   0  0  0  0  0  0  0  0  0  0  0  0
   -3.9376    0.7828   -0.0000 C   0  0  0  0  0  0  0  0  0  0  0  0
    3.8428    0.8184   -0.0000 C   0  0  0  0  0  0  0  0  0  0  0  0
   -3.9495    2.2891   -0.0000 N   0  0  0  0  0  0  0  0  0  0  0  0
   -2.6567    4.5307   -0.0000 N   0  0  0  0  0  0  0  0  0  0  0  0
   -5.2423    0.0474   -0.0000 N   0  0  0  0  0  0  0  0  0  0  0  0
    5.1355    0.0949   -0.0000 C   0  0  0  0  0  0  0  0  0  0  0  0
   -1.3758    5.2779   -0.0000 C   0  0  0  0  0  0  0  0  0  0  0  0
   -3.9851    5.2660   -0.0000 C   0  0  0  0  0  0  0  0  0  0  0  0
   -6.5469    0.8065   -0.0000 C   0  0  0  0  0  0  0  0  0  0  0  0
    6.4046    0.8777   -0.0000 C   0  0  0  0  0  0  0  0  0  0  0  0
    5.1355   -1.3877   -0.0000 C   0  0  0  0  0  0  0  0  0  0  0  0
   -1.3877    6.7841   -0.0000 C   0  0  0  0  0  0  0  0  0  0  0  0
   -3.9732    6.7841   -0.0000 C   0  0  0  0  0  0  0  0  0  0  0  0
   -7.8634    0.0712   -0.0000 C   0  0  0  0  0  0  0  0  0  0  0  0
    7.6855    0.1423   -0.0000 C   0  0  0  0  0  0  0  0  0  0  0  0
    6.4165   -2.0993   -0.0000 C   0  0  0  0  0  0  0  0  0  0  0  0
   -2.6923    7.5432   -0.0000 N   0  0  0  0  0  0  0  0  0  0  0  0
   -9.1681    0.8302   -0.0000 C   0  0  0  0  0  0  0  0  0  0  0  0
    7.6974   -1.3521   -0.0000 C   0  0  0  0  0  0  0  0  0  0  0  0
   -2.7042    9.0495   -0.0000 C   0  0  0  0  0  0  0  0  0  0  0  0
   -9.1681    2.3365   -0.0000 C   0  0  0  0  0  0  0  0  0  0  0  0
  -10.4609    0.0949   -0.0000 C   0  0  0  0  0  0  0  0  0  0  0  0
  -10.4727    3.0956   -0.0000 C   0  0  0  0  0  0  0  0  0  0  0  0
  -11.7655    0.8539   -0.0000 C   0  0  0  0  0  0  0  0  0  0  0  0
  -11.7892    2.3602   -0.0000 C   0  0  0  0  0  0  0  0  0  0  0  0
  -13.0939    3.1193   -0.0000 O   0  0  0  0  0  0  0  0  0  0  0  0
  1  2  1  0  0  0  0
  1  3  1  0  0  0  0
  2  4  2  0  0  0  0
  2  5  1  0  0  0  0
  3  6  1  0  0  0  0
  4  7  1  0  0  0  0
  5  8  2  0  0  0  0
  6  9  1  0  0  0  0
  7 10  2  0  0  0  0
  7 11  1  0  0  0  0
  8 12  1  0  0  0  0
  9 13  1  0  0  0  0
 11 14  1  0  0  0  0
 11 15  1  0  0  0  0
 12 16  1  0  0  0  0
 13 17  2  0  0  0  0
 13 18  1  0  0  0  0
 14 19  1  0  0  0  0
 15 20  1  0  0  0  0
 16 21  1  0  0  0  0
 17 22  1  0  0  0  0
 18 23  2  0  0  0  0
 19 24  1  0  0  0  0
 21 25  1  0  0  0  0
 22 26  2  0  0  0  0
 24 27  1  0  0  0  0
 25 28  2  0  0  0  0
 25 29  1  0  0  0  0
 28 30  1  0  0  0  0
 29 31  2  0  0  0  0
 30 32  2  0  0  0  0
 32 33  1  0  0  0  0
  8 10  1  0  0  0  0
 20 24  1  0  0  0  0
 23 26  1  0  0  0  0
 31 32  1  0  0  0  0
M  END
>  <MolRegNo>
252641

>  <m>
=

>  <Value>
270

>  <Unit>
nM

>  <Type>
Ki

>  <pValue>
6.57

>  <Ligand Efficiency>
0.27

>  <Binding Efficiency>
14.14

>  <Surface Efficiency>
8.49

>  <Assay Index>
67398

>  <Assay Category>


>  <Assay Organism>


>  <Target ID>
19

>  <Target Name>
Estrogen receptor alpha

>  <Target Organism>
Homo sapiens

>  <Target Description>
Target is a single protein chain

>  <Sequence Accession>
P03372

>  <Reference>
J Med Chem 45 (25), 5492-5505 (2002)

>  <Pubmed ID>
12459017

>  <DOI>
10.1021/jm020291h

$$$$
252718
Actelion Java MolfileCreator 1.0

 41 45  0  0  0  0  0  0  0  0999 V2000
    0.0000   -0.0000   -0.0000 Cl  0  0  0  0  0  0  0  0  0  0  0  0
   -1.3037    0.7467   -0.0000 C   0  0  0  0  0  0  0  0  0  0  0  0
   -1.3392    2.2637   -0.0000 C   0  0  0  0  0  0  0  0  0  0  0  0
   -2.6192   -0.0000   -0.0000 C   0  0  0  0  0  0  0  0  0  0  0  0
   -2.6548    2.9985   -0.0000 C   0  0  0  0  0  0  0  0  0  0  0  0
   -3.9229    0.7467   -0.0000 C   0  0  0  0  0  0  0  0  0  0  0  0
   -3.9348    2.2518   -0.0000 C   0  0  0  0  0  0  0  0  0  0  0  0
   -5.2503    2.9985   -0.0000 C   0  0  0  0  0  0  0  0  0  0  0  0
   -6.5303    2.2518   -0.0000 C   0  0  0  0  0  0  0  0  0  0  0  0
   -7.8458    2.9985   -0.0000 C   0  0  0  0  0  0  0  0  0  0  0  0
   -9.1495    2.2518   -0.0000 N   0  0  0  0  0  0  0  0  0  0  0  0
  -10.4532    2.9985   -0.0000 C   0  0  0  0  0  0  0  0  0  0  0  0
   -9.1377    0.7704   -0.0000 C   0  0  0  0  0  0  0  0  0  0  0  0
  -10.4651    4.5037   -0.0000 N   0  0  0  0  0  0  0  0  0  0  0  0
  -11.7569    2.2637   -0.0000 N   0  0  0  0  0  0  0  0  0  0  0  0
  -11.7688    5.2622   -0.0000 C   0  0  0  0  0  0  0  0  0  0  0  0
  -13.0606    3.0222   -0.0000 C   0  0  0  0  0  0  0  0  0  0  0  0
  -13.0725    4.5274   -0.0000 N   0  0  0  0  0  0  0  0  0  0  0  0
  -11.7925    6.7673   -0.0000 N   0  0  0  0  0  0  0  0  0  0  0  0
  -14.3761    2.2874   -0.0000 N   0  0  0  0  0  0  0  0  0  0  0  0
  -10.5006    7.5140   -0.0000 C   0  0  0  0  0  0  0  0  0  0  0  0
  -13.0962    7.5021   -0.0000 C   0  0  0  0  0  0  0  0  0  0  0  0
  -15.6798    3.0459   -0.0000 C   0  0  0  0  0  0  0  0  0  0  0  0
  -10.5125    9.0192   -0.0000 C   0  0  0  0  0  0  0  0  0  0  0  0
  -13.1080    9.0192   -0.0000 C   0  0  0  0  0  0  0  0  0  0  0  0
  -16.9835    2.3111   -0.0000 C   0  0  0  0  0  0  0  0  0  0  0  0
  -11.8280    9.7777   -0.0000 N   0  0  0  0  0  0  0  0  0  0  0  0
  -18.2872    3.0696   -0.0000 C   0  0  0  0  0  0  0  0  0  0  0  0
  -11.8280   11.2828   -0.0000 C   0  0  0  0  0  0  0  0  0  0  0  0
  -18.2991    4.5748   -0.0000 C   0  0  0  0  0  0  0  0  0  0  0  0
  -19.5909    2.3466   -0.0000 C   0  0  0  0  0  0  0  0  0  0  0  0
  -10.5480   12.0295   -0.0000 C   0  0  0  0  0  0  0  0  0  0  0  0
  -19.6028    5.3333   -0.0000 C   0  0  0  0  0  0  0  0  0  0  0  0
  -20.8946    3.0933   -0.0000 C   0  0  0  0  0  0  0  0  0  0  0  0
   -9.2799   11.2828   -0.0000 C   0  0  0  0  0  0  0  0  0  0  0  0
  -10.5599   13.5228   -0.0000 C   0  0  0  0  0  0  0  0  0  0  0  0
  -20.9065    4.5985   -0.0000 C   0  0  0  0  0  0  0  0  0  0  0  0
   -7.9999   12.0414   -0.0000 C   0  0  0  0  0  0  0  0  0  0  0  0
   -9.2799   14.2813   -0.0000 C   0  0  0  0  0  0  0  0  0  0  0  0
  -22.2101    5.3570   -0.0000 O   0  0  0  0  0  0  0  0  0  0  0  0
   -8.0118   13.5465   -0.0000 N   0  0  0  0  0  0  0  0  0  0  0  0
  1  2  1  0  0  0  0
  2  3  2  0  0  0  0
  2  4  1  0  0  0  0
  3  5  1  0  0  0  0
  4  6  2  0  0  0  0
  5  7  2  0  0  0  0
  7  8  1  0  0  0  0
  8  9  1  0  0  0  0
  9 10  1  0  0  0  0
 10 11  1  0  0  0  0
 11 12  1  0  0  0  0
 11 13  1  0  0  0  0
 12 14  2  0  0  0  0
 12 15  1  0  0  0  0
 14 16  1  0  0  0  0
 15 17  2  0  0  0  0
 16 18  2  0  0  0  0
 16 19  1  0  0  0  0
 17 20  1  0  0  0  0
 19 21  1  0  0  0  0
 19 22  1  0  0  0  0
 20 23  1  0  0  0  0
 21 24  1  0  0  0  0
 22 25  1  0  0  0  0
 23 26  1  0  0  0  0
 24 27  1  0  0  0  0
 26 28  1  0  0  0  0
 27 29  1  0  0  0  0
 28 30  2  0  0  0  0
 28 31  1  0  0  0  0
 29 32  1  0  0  0  0
 30 33  1  0  0  0  0
 31 34  2  0  0  0  0
 32 35  2  0  0  0  0
 32 36  1  0  0  0  0
 33 37  2  0  0  0  0
 35 38  1  0  0  0  0
 36 39  2  0  0  0  0
 37 40  1  0  0  0  0
 38 41  2  0  0  0  0
  6  7  1  0  0  0  0
 17 18  1  0  0  0  0
 25 27  1  0  0  0  0
 34 37  1  0  0  0  0
 39 41  1  0  0  0  0
M  END
>  <MolRegNo>
252718

>  <m>
=

>  <Value>
810

>  <Unit>
nM

>  <Type>
Ki

>  <pValue>
6.09

>  <Ligand Efficiency>
0.2

>  <Binding Efficiency>
10.63

>  <Surface Efficiency>
6.51

>  <Assay Index>
67398

>  <Assay Category>


>  <Assay Organism>


>  <Target ID>
19

>  <Target Name>
Estrogen receptor alpha

>  <Target Organism>
Homo sapiens

>  <Target Description>
Target is a single protein chain

>  <Sequence Accession>
P03372

>  <Reference>
J Med Chem 45 (25), 5492-5505 (2002)

>  <Pubmed ID>
12459017

>  <DOI>
10.1021/jm020291h

$$$$
253050
Actelion Java MolfileCreator 1.0

 44 48  0  0  0  0  0  0  0  0999 V2000
    0.0000   -0.0000   -0.0000 Cl  0  0  0  0  0  0  0  0  0  0  0  0
    1.2999    0.7632   -0.0000 C   0  0  0  0  0  0  0  0  0  0  0  0
    1.2879    2.2778   -0.0000 C   0  0  0  0  0  0  0  0  0  0  0  0
    2.5878    0.0119   -0.0000 C   0  0  0  0  0  0  0  0  0  0  0  0
    2.5878    3.0410   -0.0000 C   0  0  0  0  0  0  0  0  0  0  0  0
    3.8758    0.7752   -0.0000 C   0  0  0  0  0  0  0  0  0  0  0  0
    3.8638    2.3016   -0.0000 C   0  0  0  0  0  0  0  0  0  0  0  0
    5.1637    3.0529   -0.0000 N   0  0  0  0  0  0  0  0  0  0  0  0
    6.4517    2.3016   -0.0000 C   0  0  0  0  0  0  0  0  0  0  0  0
    7.7515    3.0648   -0.0000 O   0  0  0  0  0  0  0  0  0  0  0  0
    6.4278    0.8348   -0.0000 N   0  0  0  0  0  0  0  0  0  0  0  0
    5.1160    0.0835   -0.0000 C   0  0  0  0  0  0  0  0  0  0  0  0
    7.7277    0.0835   -0.0000 C   0  0  0  0  0  0  0  0  0  0  0  0
    5.1041   -1.4191   -0.0000 C   0  0  0  0  0  0  0  0  0  0  0  0
    7.7158   -1.4072   -0.0000 C   0  0  0  0  0  0  0  0  0  0  0  0
    6.3920   -2.1347   -0.0000 N   0  0  0  0  0  0  0  0  0  0  0  0
    6.3920   -3.6253   -0.0000 C   0  0  0  0  0  0  0  0  0  0  0  0
    7.6919   -4.3647   -0.0000 N   0  0  0  0  0  0  0  0  0  0  0  0
    5.0802   -4.3647   -0.0000 N   0  0  0  0  0  0  0  0  0  0  0  0
    7.6800   -5.8554   -0.0000 C   0  0  0  0  0  0  0  0  0  0  0  0
    5.0683   -5.8554   -0.0000 C   0  0  0  0  0  0  0  0  0  0  0  0
    6.3563   -6.5948   -0.0000 N   0  0  0  0  0  0  0  0  0  0  0  0
    8.9679   -6.5948   -0.0000 N   0  0  0  0  0  0  0  0  0  0  0  0
    3.7446   -6.5948   -0.0000 N   0  0  0  0  0  0  0  0  0  0  0  0
   10.2559   -5.8196   -0.0000 C   0  0  0  0  0  0  0  0  0  0  0  0
    8.9799   -8.0854   -0.0000 C   0  0  0  0  0  0  0  0  0  0  0  0
    2.4328   -5.8315   -0.0000 C   0  0  0  0  0  0  0  0  0  0  0  0
   11.5558   -6.5471   -0.0000 C   0  0  0  0  0  0  0  0  0  0  0  0
    1.1210   -6.5709   -0.0000 C   0  0  0  0  0  0  0  0  0  0  0  0
   12.8318   -5.7719   -0.0000 C   0  0  0  0  0  0  0  0  0  0  0  0
   -0.1908   -5.8077   -0.0000 C   0  0  0  0  0  0  0  0  0  0  0  0
   14.1436   -6.4994   -0.0000 C   0  0  0  0  0  0  0  0  0  0  0  0
   -0.2027   -4.2932   -0.0000 C   0  0  0  0  0  0  0  0  0  0  0  0
   -1.5026   -6.5471   -0.0000 C   0  0  0  0  0  0  0  0  0  0  0  0
   15.4077   -5.7123   -0.0000 C   0  0  0  0  0  0  0  0  0  0  0  0
   14.1316   -7.9900   -0.0000 C   0  0  0  0  0  0  0  0  0  0  0  0
   -1.5145   -3.5299   -0.0000 C   0  0  0  0  0  0  0  0  0  0  0  0
   -2.8144   -5.7838   -0.0000 C   0  0  0  0  0  0  0  0  0  0  0  0
   16.7075   -6.4517   -0.0000 C   0  0  0  0  0  0  0  0  0  0  0  0
   15.4315   -8.7056   -0.0000 C   0  0  0  0  0  0  0  0  0  0  0  0
   -2.8263   -4.2693   -0.0000 C   0  0  0  0  0  0  0  0  0  0  0  0
   16.7195   -7.9543   -0.0000 C   0  0  0  0  0  0  0  0  0  0  0  0
   -4.1381   -3.5061   -0.0000 O   0  0  0  0  0  0  0  0  0  0  0  0
   18.0193   -8.6698   -0.0000 Cl  0  0  0  0  0  0  0  0  0  0  0  0
  1  2  1  0  0  0  0
  2  3  2  0  0  0  0
  2  4  1  0  0  0  0
  3  5  1  0  0  0  0
  4  6  2  0  0  0  0
  5  7  2  0  0  0  0
  7  8  1  0  0  0  0
  8  9  1  0  0  0  0
  9 10  2  0  0  0  0
  9 11  1  0  0  0  0
 11 12  1  0  0  0  0
 11 13  1  0  0  0  0
 12 14  1  0  0  0  0
 13 15  1  0  0  0  0
 14 16  1  0  0  0  0
 16 17  1  0  0  0  0
 17 18  2  0  0  0  0
 17 19  1  0  0  0  0
 18 20  1  0  0  0  0
 19 21  2  0  0  0  0
 20 22  2  0  0  0  0
 20 23  1  0  0  0  0
 21 24  1  0  0  0  0
 23 25  1  0  0  0  0
 23 26  1  0  0  0  0
 24 27  1  0  0  0  0
 25 28  1  0  0  0  0
 27 29  1  0  0  0  0
 28 30  1  0  0  0  0
 29 31  1  0  0  0  0
 30 32  1  0  0  0  0
 31 33  2  0  0  0  0
 31 34  1  0  0  0  0
 32 35  2  0  0  0  0
 32 36  1  0  0  0  0
 33 37  1  0  0  0  0
 34 38  2  0  0  0  0
 35 39  1  0  0  0  0
 36 40  2  0  0  0  0
 37 41  2  0  0  0  0
 39 42  2  0  0  0  0
 41 43  1  0  0  0  0
 42 44  1  0  0  0  0
  6  7  1  0  0  0  0
 15 16  1  0  0  0  0
 21 22  1  0  0  0  0
 38 41  1  0  0  0  0
 40 42  1  0  0  0  0
M  END
>  <MolRegNo>
253050

>  <m>
=

>  <Value>
855

>  <Unit>
nM

>  <Type>
Ki

>  <pValue>
6.07

>  <Ligand Efficiency>
0.19

>  <Binding Efficiency>
9.55

>  <Surface Efficiency>
5.53

>  <Assay Index>
67398

>  <Assay Category>


>  <Assay Organism>


>  <Target ID>
19

>  <Target Name>
Estrogen receptor alpha

>  <Target Organism>
Homo sapiens

>  <Target Description>
Target is a single protein chain

>  <Sequence Accession>
P03372

>  <Reference>
J Med Chem 45 (25), 5492-5505 (2002)

>  <Pubmed ID>
12459017

>  <DOI>
10.1021/jm020291h

$$$$
252693
Actelion Java MolfileCreator 1.0

 31 34  0  0  0  0  0  0  0  0999 V2000
    0.0000   -0.0000   -0.0000 O   0  0  0  0  0  0  0  0  0  0  0  0
    1.2878   -0.7393   -0.0000 C   0  0  0  0  0  0  0  0  0  0  0  0
    2.5874    0.0238   -0.0000 C   0  0  0  0  0  0  0  0  0  0  0  0
    1.2878   -2.2297   -0.0000 C   0  0  0  0  0  0  0  0  0  0  0  0
    3.8752   -0.7154   -0.0000 C   0  0  0  0  0  0  0  0  0  0  0  0
    2.5755   -2.9690   -0.0000 C   0  0  0  0  0  0  0  0  0  0  0  0
    3.8513   -2.2059   -0.0000 C   0  0  0  0  0  0  0  0  0  0  0  0
    5.1391   -2.9451   -0.0000 C   0  0  0  0  0  0  0  0  0  0  0  0
    6.4388   -2.1820   -0.0000 C   0  0  0  0  0  0  0  0  0  0  0  0
    7.7265   -2.9213   -0.0000 N   0  0  0  0  0  0  0  0  0  0  0  0
    9.0143   -2.1582   -0.0000 C   0  0  0  0  0  0  0  0  0  0  0  0
    9.0023   -0.6439   -0.0000 N   0  0  0  0  0  0  0  0  0  0  0  0
   10.3020   -2.8974   -0.0000 N   0  0  0  0  0  0  0  0  0  0  0  0
   10.2901    0.1192   -0.0000 C   0  0  0  0  0  0  0  0  0  0  0  0
   11.6017   -2.1343   -0.0000 C   0  0  0  0  0  0  0  0  0  0  0  0
   11.5898   -0.6200   -0.0000 N   0  0  0  0  0  0  0  0  0  0  0  0
   10.2782    1.6335   -0.0000 N   0  0  0  0  0  0  0  0  0  0  0  0
   12.9014   -2.8736   -0.0000 N   0  0  0  0  0  0  0  0  0  0  0  0
   11.5659    2.3847   -0.0000 C   0  0  0  0  0  0  0  0  0  0  0  0
    8.9427    2.3728   -0.0000 C   0  0  0  0  0  0  0  0  0  0  0  0
   14.1176   -1.9912   -0.0000 C   0  0  0  0  0  0  0  0  0  0  0  0
   11.5540    3.8990   -0.0000 C   0  0  0  0  0  0  0  0  0  0  0  0
    8.9546    3.8990   -0.0000 C   0  0  0  0  0  0  0  0  0  0  0  0
   15.4769   -2.5994   -0.0000 C   0  0  0  0  0  0  0  0  0  0  0  0
   10.2424    4.6621   -0.0000 N   0  0  0  0  0  0  0  0  0  0  0  0
   16.7646   -1.8243   -0.0000 C   0  0  0  0  0  0  0  0  0  0  0  0
   18.0643   -2.5636   -0.0000 C   0  0  0  0  0  0  0  0  0  0  0  0
   16.7408   -0.3219   -0.0000 C   0  0  0  0  0  0  0  0  0  0  0  0
   19.3521   -1.8005   -0.0000 C   0  0  0  0  0  0  0  0  0  0  0  0
   18.0166    0.4531   -0.0000 C   0  0  0  0  0  0  0  0  0  0  0  0
   19.3282   -0.2862   -0.0000 C   0  0  0  0  0  0  0  0  0  0  0  0
  1  2  1  0  0  0  0
  2  3  2  0  0  0  0
  2  4  1  0  0  0  0
  3  5  1  0  0  0  0
  4  6  2  0  0  0  0
  5  7  2  0  0  0  0
  7  8  1  0  0  0  0
  8  9  1  0  0  0  0
  9 10  1  0  0  0  0
 10 11  1  0  0  0  0
 11 12  2  0  0  0  0
 11 13  1  0  0  0  0
 12 14  1  0  0  0  0
 13 15  2  0  0  0  0
 14 16  2  0  0  0  0
 14 17  1  0  0  0  0
 15 18  1  0  0  0  0
 17 19  1  0  0  0  0
 17 20  1  0  0  0  0
 18 21  1  0  0  0  0
 19 22  1  0  0  0  0
 20 23  1  0  0  0  0
 21 24  1  0  0  0  0
 22 25  1  0  0  0  0
 24 26  1  0  0  0  0
 26 27  2  0  0  0  0
 26 28  1  0  0  0  0
 27 29  1  0  0  0  0
 28 30  2  0  0  0  0
 29 31  2  0  0  0  0
  6  7  1  0  0  0  0
 15 16  1  0  0  0  0
 23 25  1  0  0  0  0
 30 31  1  0  0  0  0
M  END
>  <MolRegNo>
252693

>  <m>
=

>  <Value>
2370

>  <Unit>
nM

>  <Type>
Ki

>  <pValue>
5.62

>  <Ligand Efficiency>
0.25

>  <Binding Efficiency>
13.41

>  <Surface Efficiency>
5.73

>  <Assay Index>
67398

>  <Assay Category>


>  <Assay Organism>


>  <Target ID>
19

>  <Target Name>
Estrogen receptor alpha

>  <Target Organism>
Homo sapiens

>  <Target Description>
Target is a single protein chain

>  <Sequence Accession>
P03372

>  <Reference>
J Med Chem 45 (25), 5492-5505 (2002)

>  <Pubmed ID>
12459017

>  <DOI>
10.1021/jm020291h

$$$$
253197
Actelion Java MolfileCreator 1.0

 37 40  0  0  0  0  0  0  0  0999 V2000
    0.0000   -0.0000   -0.0000 F   0  0  0  0  0  0  0  0  0  0  0  0
   -0.0236    1.5015   -0.0000 C   0  0  0  0  0  0  0  0  0  0  0  0
    1.2414    2.2700   -0.0000 F   0  0  0  0  0  0  0  0  0  0  0  0
   -1.0877    0.4493   -0.0000 F   0  0  0  0  0  0  0  0  0  0  0  0
   -1.3360    2.2346   -0.0000 C   0  0  0  0  0  0  0  0  0  0  0  0
   -2.6365    1.5015   -0.0000 C   0  0  0  0  0  0  0  0  0  0  0  0
   -1.3715    3.7479   -0.0000 C   0  0  0  0  0  0  0  0  0  0  0  0
   -3.9371    2.2346   -0.0000 C   0  0  0  0  0  0  0  0  0  0  0  0
   -2.6720    4.5046   -0.0000 C   0  0  0  0  0  0  0  0  0  0  0  0
   -3.9607    3.7361   -0.0000 C   0  0  0  0  0  0  0  0  0  0  0  0
   -5.2731    4.4809   -0.0000 C   0  0  0  0  0  0  0  0  0  0  0  0
   -6.5736    3.7361   -0.0000 C   0  0  0  0  0  0  0  0  0  0  0  0
   -7.8742    4.4809   -0.0000 C   0  0  0  0  0  0  0  0  0  0  0  0
   -9.1747    3.7361   -0.0000 N   0  0  0  0  0  0  0  0  0  0  0  0
  -10.4871    4.4928   -0.0000 C   0  0  0  0  0  0  0  0  0  0  0  0
   -9.1747    2.2582   -0.0000 C   0  0  0  0  0  0  0  0  0  0  0  0
  -10.4989    5.9943   -0.0000 N   0  0  0  0  0  0  0  0  0  0  0  0
  -11.7994    3.7597   -0.0000 N   0  0  0  0  0  0  0  0  0  0  0  0
  -11.8112    6.7510   -0.0000 C   0  0  0  0  0  0  0  0  0  0  0  0
  -13.1000    4.5164   -0.0000 C   0  0  0  0  0  0  0  0  0  0  0  0
  -13.1118    6.0179   -0.0000 N   0  0  0  0  0  0  0  0  0  0  0  0
  -11.8231    8.2525   -0.0000 N   0  0  0  0  0  0  0  0  0  0  0  0
  -14.4005    3.7834   -0.0000 N   0  0  0  0  0  0  0  0  0  0  0  0
  -10.5462    8.9974   -0.0000 C   0  0  0  0  0  0  0  0  0  0  0  0
  -13.1354    8.9855   -0.0000 C   0  0  0  0  0  0  0  0  0  0  0  0
  -15.7010    4.5401   -0.0000 C   0  0  0  0  0  0  0  0  0  0  0  0
  -10.5580   10.4989   -0.0000 C   0  0  0  0  0  0  0  0  0  0  0  0
  -13.1354   10.4989   -0.0000 C   0  0  0  0  0  0  0  0  0  0  0  0
  -17.0134    3.8070   -0.0000 C   0  0  0  0  0  0  0  0  0  0  0  0
  -11.8585   11.2556   -0.0000 N   0  0  0  0  0  0  0  0  0  0  0  0
  -18.3139    4.5637   -0.0000 C   0  0  0  0  0  0  0  0  0  0  0  0
  -18.3139    6.0652   -0.0000 C   0  0  0  0  0  0  0  0  0  0  0  0
  -19.6027    3.8307   -0.0000 C   0  0  0  0  0  0  0  0  0  0  0  0
  -19.6145    6.8219   -0.0000 C   0  0  0  0  0  0  0  0  0  0  0  0
  -20.9032    4.5874   -0.0000 C   0  0  0  0  0  0  0  0  0  0  0  0
  -20.9268    6.0889   -0.0000 C   0  0  0  0  0  0  0  0  0  0  0  0
  -22.2274    6.8456   -0.0000 O   0  0  0  0  0  0  0  0  0  0  0  0
  1  2  1  0  0  0  0
  2  3  1  0  0  0  0
  2  4  1  0  0  0  0
  2  5  1  0  0  0  0
  5  6  2  0  0  0  0
  5  7  1  0  0  0  0
  6  8  1  0  0  0  0
  7  9  2  0  0  0  0
  8 10  2  0  0  0  0
 10 11  1  0  0  0  0
 11 12  1  0  0  0  0
 12 13  1  0  0  0  0
 13 14  1  0  0  0  0
 14 15  1  0  0  0  0
 14 16  1  0  0  0  0
 15 17  2  0  0  0  0
 15 18  1  0  0  0  0
 17 19  1  0  0  0  0
 18 20  2  0  0  0  0
 19 21  2  0  0  0  0
 19 22  1  0  0  0  0
 20 23  1  0  0  0  0
 22 24  1  0  0  0  0
 22 25  1  0  0  0  0
 23 26  1  0  0  0  0
 24 27  1  0  0  0  0
 25 28  1  0  0  0  0
 26 29  1  0  0  0  0
 27 30  1  0  0  0  0
 29 31  1  0  0  0  0
 31 32  2  0  0  0  0
 31 33  1  0  0  0  0
 32 34  1  0  0  0  0
 33 35  2  0  0  0  0
 34 36  2  0  0  0  0
 36 37  1  0  0  0  0
  9 10  1  0  0  0  0
 20 21  1  0  0  0  0
 28 30  1  0  0  0  0
 35 36  1  0  0  0  0
M  END
>  <MolRegNo>
253197

>  <m>
=

>  <Value>
480

>  <Unit>
nM

>  <Type>
Ki

>  <pValue>
6.32

>  <Ligand Efficiency>
0.23

>  <Binding Efficiency>
12.26

>  <Surface Efficiency>
7.06

>  <Assay Index>
67398

>  <Assay Category>


>  <Assay Organism>


>  <Target ID>
19

>  <Target Name>
Estrogen receptor alpha

>  <Target Organism>
Homo sapiens

>  <Target Description>
Target is a single protein chain

>  <Sequence Accession>
P03372

>  <Reference>
J Med Chem 45 (25), 5492-5505 (2002)

>  <Pubmed ID>
12459017

>  <DOI>
10.1021/jm020291h

$$$$
252911
Actelion Java MolfileCreator 1.0

 40 43  0  0  0  0  0  0  0  0999 V2000
    0.0000   -0.0000   -0.0000 Cl  0  0  0  0  0  0  0  0  0  0  0  0
   -1.3034    0.7347   -0.0000 C   0  0  0  0  0  0  0  0  0  0  0  0
   -1.3390    2.2395   -0.0000 C   0  0  0  0  0  0  0  0  0  0  0  0
   -2.6187   -0.0000   -0.0000 C   0  0  0  0  0  0  0  0  0  0  0  0
   -2.6543    2.9860   -0.0000 C   0  0  0  0  0  0  0  0  0  0  0  0
   -3.9221    0.7347   -0.0000 C   0  0  0  0  0  0  0  0  0  0  0  0
   -3.9340    2.2277   -0.0000 C   0  0  0  0  0  0  0  0  0  0  0  0
   -5.2493    2.9742   -0.0000 C   0  0  0  0  0  0  0  0  0  0  0  0
   -6.5290    2.2277   -0.0000 C   0  0  0  0  0  0  0  0  0  0  0  0
   -7.8443    2.9742   -0.0000 C   0  0  0  0  0  0  0  0  0  0  0  0
   -9.1477    2.2277   -0.0000 N   0  0  0  0  0  0  0  0  0  0  0  0
  -10.4511    2.9860   -0.0000 C   0  0  0  0  0  0  0  0  0  0  0  0
   -9.1359    0.7465   -0.0000 C   0  0  0  0  0  0  0  0  0  0  0  0
  -10.4630    4.4909   -0.0000 N   0  0  0  0  0  0  0  0  0  0  0  0
  -11.7546    2.2514   -0.0000 N   0  0  0  0  0  0  0  0  0  0  0  0
  -11.7664    5.2493   -0.0000 C   0  0  0  0  0  0  0  0  0  0  0  0
  -13.0580    3.0097   -0.0000 C   0  0  0  0  0  0  0  0  0  0  0  0
  -13.0698    4.5146   -0.0000 N   0  0  0  0  0  0  0  0  0  0  0  0
  -11.7901    6.7541   -0.0000 N   0  0  0  0  0  0  0  0  0  0  0  0
  -14.3733    2.2751   -0.0000 N   0  0  0  0  0  0  0  0  0  0  0  0
  -10.4985    7.5006   -0.0000 C   0  0  0  0  0  0  0  0  0  0  0  0
  -13.0698    7.5006   -0.0000 C   0  0  0  0  0  0  0  0  0  0  0  0
  -15.6767    3.0334   -0.0000 C   0  0  0  0  0  0  0  0  0  0  0  0
  -10.5104    8.9937   -0.0000 C   0  0  0  0  0  0  0  0  0  0  0  0
  -13.0698    9.0174   -0.0000 C   0  0  0  0  0  0  0  0  0  0  0  0
  -16.9801    2.2988   -0.0000 C   0  0  0  0  0  0  0  0  0  0  0  0
  -11.8138    9.7639   -0.0000 N   0  0  0  0  0  0  0  0  0  0  0  0
  -18.2836    3.0571   -0.0000 C   0  0  0  0  0  0  0  0  0  0  0  0
  -11.8138   11.2687   -0.0000 C   0  0  0  0  0  0  0  0  0  0  0  0
  -18.2954    4.5620   -0.0000 C   0  0  0  0  0  0  0  0  0  0  0  0
  -19.5870    2.3225   -0.0000 C   0  0  0  0  0  0  0  0  0  0  0  0
  -10.5341   12.0153   -0.0000 C   0  0  0  0  0  0  0  0  0  0  0  0
  -19.5988    5.3204   -0.0000 C   0  0  0  0  0  0  0  0  0  0  0  0
  -20.8904    3.0808   -0.0000 C   0  0  0  0  0  0  0  0  0  0  0  0
   -9.2544   11.2806   -0.0000 O   0  0  0  0  0  0  0  0  0  0  0  0
  -10.5459   13.5201   -0.0000 N   0  0  0  0  0  0  0  0  0  0  0  0
  -20.9023    4.5857   -0.0000 C   0  0  0  0  0  0  0  0  0  0  0  0
  -11.8494   14.2903   -0.0000 C   0  0  0  0  0  0  0  0  0  0  0  0
   -9.2544   14.2785   -0.0000 C   0  0  0  0  0  0  0  0  0  0  0  0
  -22.2057    5.3441   -0.0000 O   0  0  0  0  0  0  0  0  0  0  0  0
  1  2  1  0  0  0  0
  2  3  2  0  0  0  0
  2  4  1  0  0  0  0
  3  5  1  0  0  0  0
  4  6  2  0  0  0  0
  5  7  2  0  0  0  0
  7  8  1  0  0  0  0
  8  9  1  0  0  0  0
  9 10  1  0  0  0  0
 10 11  1  0  0  0  0
 11 12  1  0  0  0  0
 11 13  1  0  0  0  0
 12 14  2  0  0  0  0
 12 15  1  0  0  0  0
 14 16  1  0  0  0  0
 15 17  2  0  0  0  0
 16 18  2  0  0  0  0
 16 19  1  0  0  0  0
 17 20  1  0  0  0  0
 19 21  1  0  0  0  0
 19 22  1  0  0  0  0
 20 23  1  0  0  0  0
 21 24  1  0  0  0  0
 22 25  1  0  0  0  0
 23 26  1  0  0  0  0
 24 27  1  0  0  0  0
 26 28  1  0  0  0  0
 27 29  1  0  0  0  0
 28 30  2  0  0  0  0
 28 31  1  0  0  0  0
 29 32  1  0  0  0  0
 30 33  1  0  0  0  0
 31 34  2  0  0  0  0
 32 35  2  0  0  0  0
 32 36  1  0  0  0  0
 33 37  2  0  0  0  0
 36 38  1  0  0  0  0
 36 39  1  0  0  0  0
 37 40  1  0  0  0  0
  6  7  1  0  0  0  0
 17 18  1  0  0  0  0
 25 27  1  0  0  0  0
 34 37  1  0  0  0  0
M  END
>  <MolRegNo>
252911

>  <m>
=

>  <Value>
3000

>  <Unit>
nM

>  <Type>
Ki

>  <pValue>
5.52

>  <Ligand Efficiency>
0.19

>  <Binding Efficiency>
9.74

>  <Surface Efficiency>
5.47

>  <Assay Index>
67398

>  <Assay Category>


>  <Assay Organism>


>  <Target ID>
19

>  <Target Name>
Estrogen receptor alpha

>  <Target Organism>
Homo sapiens

>  <Target Description>
Target is a single protein chain

>  <Sequence Accession>
P03372

>  <Reference>
J Med Chem 45 (25), 5492-5505 (2002)

>  <Pubmed ID>
12459017

>  <DOI>
10.1021/jm020291h

$$$$
252642
Actelion Java MolfileCreator 1.0

 32 35  0  0  0  0  0  0  0  0999 V2000
    0.0000   -0.0000   -0.0000 O   0  0  0  0  0  0  0  0  0  0  0  0
    1.2891    0.7520   -0.0000 C   0  0  0  0  0  0  0  0  0  0  0  0
    1.2772    2.2679   -0.0000 C   0  0  0  0  0  0  0  0  0  0  0  0
    2.5901    0.0119   -0.0000 C   0  0  0  0  0  0  0  0  0  0  0  0
    2.5782    3.0318   -0.0000 C   0  0  0  0  0  0  0  0  0  0  0  0
    3.8792    0.7758   -0.0000 C   0  0  0  0  0  0  0  0  0  0  0  0
    3.8434    2.2917   -0.0000 C   0  0  0  0  0  0  0  0  0  0  0  0
    5.1325    3.0437   -0.0000 C   0  0  0  0  0  0  0  0  0  0  0  0
    6.4336    2.3037   -0.0000 N   0  0  0  0  0  0  0  0  0  0  0  0
    7.7227    3.0676   -0.0000 C   0  0  0  0  0  0  0  0  0  0  0  0
    7.7107    4.5954   -0.0000 N   0  0  0  0  0  0  0  0  0  0  0  0
    9.0118    2.3275   -0.0000 N   0  0  0  0  0  0  0  0  0  0  0  0
    8.9998    5.3593   -0.0000 C   0  0  0  0  0  0  0  0  0  0  0  0
   10.3009    3.0915   -0.0000 C   0  0  0  0  0  0  0  0  0  0  0  0
   10.2889    4.6193   -0.0000 N   0  0  0  0  0  0  0  0  0  0  0  0
    8.9760    6.8752   -0.0000 N   0  0  0  0  0  0  0  0  0  0  0  0
   11.6019    2.3514   -0.0000 N   0  0  0  0  0  0  0  0  0  0  0  0
    7.6510    7.6152   -0.0000 C   0  0  0  0  0  0  0  0  0  0  0  0
   10.2651    7.6152   -0.0000 C   0  0  0  0  0  0  0  0  0  0  0  0
   12.8910    3.1273   -0.0000 C   0  0  0  0  0  0  0  0  0  0  0  0
    7.6510    9.1311   -0.0000 C   0  0  0  0  0  0  0  0  0  0  0  0
   10.2531    9.1311   -0.0000 C   0  0  0  0  0  0  0  0  0  0  0  0
   14.1801    2.3992   -0.0000 C   0  0  0  0  0  0  0  0  0  0  0  0
    8.9401    9.8950   -0.0000 N   0  0  0  0  0  0  0  0  0  0  0  0
   15.4573    3.1750   -0.0000 C   0  0  0  0  0  0  0  0  0  0  0  0
    8.9282   11.4109   -0.0000 C   0  0  0  0  0  0  0  0  0  0  0  0
   16.7464    2.4350   -0.0000 C   0  0  0  0  0  0  0  0  0  0  0  0
   18.0235    3.2227   -0.0000 C   0  0  0  0  0  0  0  0  0  0  0  0
   16.7344    0.9430   -0.0000 C   0  0  0  0  0  0  0  0  0  0  0  0
   19.3126    2.4946   -0.0000 C   0  0  0  0  0  0  0  0  0  0  0  0
   18.0355    0.2268   -0.0000 C   0  0  0  0  0  0  0  0  0  0  0  0
   19.3126    1.0026   -0.0000 C   0  0  0  0  0  0  0  0  0  0  0  0
  1  2  1  0  0  0  0
  2  3  2  0  0  0  0
  2  4  1  0  0  0  0
  3  5  1  0  0  0  0
  4  6  2  0  0  0  0
  5  7  2  0  0  0  0
  7  8  1  0  0  0  0
  8  9  1  0  0  0  0
  9 10  1  0  0  0  0
 10 11  2  0  0  0  0
 10 12  1  0  0  0  0
 11 13  1  0  0  0  0
 12 14  2  0  0  0  0
 13 15  2  0  0  0  0
 13 16  1  0  0  0  0
 14 17  1  0  0  0  0
 16 18  1  0  0  0  0
 16 19  1  0  0  0  0
 17 20  1  0  0  0  0
 18 21  1  0  0  0  0
 19 22  1  0  0  0  0
 20 23  1  0  0  0  0
 21 24  1  0  0  0  0
 23 25  1  0  0  0  0
 24 26  1  0  0  0  0
 25 27  1  0  0  0  0
 27 28  2  0  0  0  0
 27 29  1  0  0  0  0
 28 30  1  0  0  0  0
 29 31  2  0  0  0  0
 30 32  2  0  0  0  0
  6  7  1  0  0  0  0
 14 15  1  0  0  0  0
 22 24  1  0  0  0  0
 31 32  1  0  0  0  0
M  END
>  <MolRegNo>
252642

>  <m>
=

>  <Value>
5130

>  <Unit>
nM

>  <Type>
Ki

>  <pValue>
5.29

>  <Ligand Efficiency>
0.23

>  <Binding Efficiency>
12.2

>  <Surface Efficiency>
5.91

>  <Assay Index>
67398

>  <Assay Category>


>  <Assay Organism>


>  <Target ID>
19

>  <Target Name>
Estrogen receptor alpha

>  <Target Organism>
Homo sapiens

>  <Target Description>
Target is a single protein chain

>  <Sequence Accession>
P03372

>  <Reference>
J Med Chem 45 (25), 5492-5505 (2002)

>  <Pubmed ID>
12459017

>  <DOI>
10.1021/jm020291h

$$$$
252666
Actelion Java MolfileCreator 1.0

 33 36  0  0  0  0  0  0  0  0999 V2000
    0.0000   -0.0000   -0.0000 Cl  0  0  0  0  0  0  0  0  0  0  0  0
   -1.3110    0.7323   -0.0000 C   0  0  0  0  0  0  0  0  0  0  0  0
   -2.6103   -0.0000   -0.0000 C   0  0  0  0  0  0  0  0  0  0  0  0
   -1.3465    2.2441   -0.0000 C   0  0  0  0  0  0  0  0  0  0  0  0
   -3.9095    0.7323   -0.0000 C   0  0  0  0  0  0  0  0  0  0  0  0
   -2.6457    3.0001   -0.0000 C   0  0  0  0  0  0  0  0  0  0  0  0
   -3.9331    2.2323   -0.0000 C   0  0  0  0  0  0  0  0  0  0  0  0
   -5.2442    2.9764   -0.0000 C   0  0  0  0  0  0  0  0  0  0  0  0
   -6.5434    2.2323   -0.0000 C   0  0  0  0  0  0  0  0  0  0  0  0
   -7.8427    2.9764   -0.0000 C   0  0  0  0  0  0  0  0  0  0  0  0
   -9.1419    2.2323   -0.0000 N   0  0  0  0  0  0  0  0  0  0  0  0
  -10.4530    2.9882   -0.0000 C   0  0  0  0  0  0  0  0  0  0  0  0
  -10.4648    4.4883   -0.0000 N   0  0  0  0  0  0  0  0  0  0  0  0
  -11.7640    2.2559   -0.0000 N   0  0  0  0  0  0  0  0  0  0  0  0
  -11.7758    5.2442   -0.0000 C   0  0  0  0  0  0  0  0  0  0  0  0
  -13.0632    3.0119   -0.0000 C   0  0  0  0  0  0  0  0  0  0  0  0
  -13.0750    4.5119   -0.0000 N   0  0  0  0  0  0  0  0  0  0  0  0
  -11.7876    6.7442   -0.0000 N   0  0  0  0  0  0  0  0  0  0  0  0
  -14.3625    2.2796   -0.0000 N   0  0  0  0  0  0  0  0  0  0  0  0
  -13.1105    7.4765   -0.0000 C   0  0  0  0  0  0  0  0  0  0  0  0
  -10.5120    7.4883   -0.0000 C   0  0  0  0  0  0  0  0  0  0  0  0
  -15.6617    3.0355   -0.0000 C   0  0  0  0  0  0  0  0  0  0  0  0
  -13.0987    8.9884   -0.0000 C   0  0  0  0  0  0  0  0  0  0  0  0
  -10.5238    8.9884   -0.0000 C   0  0  0  0  0  0  0  0  0  0  0  0
  -16.9728    2.3032   -0.0000 C   0  0  0  0  0  0  0  0  0  0  0  0
  -11.8231    9.7443   -0.0000 N   0  0  0  0  0  0  0  0  0  0  0  0
  -18.2720    3.0591   -0.0000 C   0  0  0  0  0  0  0  0  0  0  0  0
  -18.2720    4.5591   -0.0000 C   0  0  0  0  0  0  0  0  0  0  0  0
  -19.5594    2.3268   -0.0000 C   0  0  0  0  0  0  0  0  0  0  0  0
  -19.5712    5.3151   -0.0000 C   0  0  0  0  0  0  0  0  0  0  0  0
  -20.8587    3.0827   -0.0000 C   0  0  0  0  0  0  0  0  0  0  0  0
  -20.8823    4.5828   -0.0000 C   0  0  0  0  0  0  0  0  0  0  0  0
  -22.1815    5.3387   -0.0000 O   0  0  0  0  0  0  0  0  0  0  0  0
  1  2  1  0  0  0  0
  2  3  2  0  0  0  0
  2  4  1  0  0  0  0
  3  5  1  0  0  0  0
  4  6  2  0  0  0  0
  5  7  2  0  0  0  0
  7  8  1  0  0  0  0
  8  9  1  0  0  0  0
  9 10  1  0  0  0  0
 10 11  1  0  0  0  0
 11 12  1  0  0  0  0
 12 13  2  0  0  0  0
 12 14  1  0  0  0  0
 13 15  1  0  0  0  0
 14 16  2  0  0  0  0
 15 17  2  0  0  0  0
 15 18  1  0  0  0  0
 16 19  1  0  0  0  0
 18 20  1  0  0  0  0
 18 21  1  0  0  0  0
 19 22  1  0  0  0  0
 20 23  1  0  0  0  0
 21 24  1  0  0  0  0
 22 25  1  0  0  0  0
 23 26  1  0  0  0  0
 25 27  1  0  0  0  0
 27 28  2  0  0  0  0
 27 29  1  0  0  0  0
 28 30  1  0  0  0  0
 29 31  2  0  0  0  0
 30 32  2  0  0  0  0
 32 33  1  0  0  0  0
  6  7  1  0  0  0  0
 16 17  1  0  0  0  0
 24 26  1  0  0  0  0
 31 32  1  0  0  0  0
M  END
>  <MolRegNo>
252666

>  <m>
=

>  <Value>
200

>  <Unit>
nM

>  <Type>
Ki

>  <pValue>
6.7

>  <Ligand Efficiency>
0.28

>  <Binding Efficiency>
14.31

>  <Surface Efficiency>
6.82

>  <Assay Index>
67398

>  <Assay Category>


>  <Assay Organism>


>  <Target ID>
19

>  <Target Name>
Estrogen receptor alpha

>  <Target Organism>
Homo sapiens

>  <Target Description>
Target is a single protein chain

>  <Sequence Accession>
P03372

>  <Reference>
J Med Chem 45 (25), 5492-5505 (2002)

>  <Pubmed ID>
12459017

>  <DOI>
10.1021/jm020291h

$$$$
253509
Actelion Java MolfileCreator 1.0

 35 38  0  0  0  0  0  0  0  0999 V2000
    0.0000   -0.0000   -0.0000 Cl  0  0  0  0  0  0  0  0  0  0  0  0
   -1.3017    0.7337   -0.0000 C   0  0  0  0  0  0  0  0  0  0  0  0
   -1.3372    2.2365   -0.0000 C   0  0  0  0  0  0  0  0  0  0  0  0
   -2.6152   -0.0000   -0.0000 C   0  0  0  0  0  0  0  0  0  0  0  0
   -2.6507    2.9820   -0.0000 C   0  0  0  0  0  0  0  0  0  0  0  0
   -3.9168    0.7337   -0.0000 C   0  0  0  0  0  0  0  0  0  0  0  0
   -3.9287    2.2247   -0.0000 C   0  0  0  0  0  0  0  0  0  0  0  0
   -5.2422    2.9702   -0.0000 C   0  0  0  0  0  0  0  0  0  0  0  0
   -6.5202    2.2247   -0.0000 C   0  0  0  0  0  0  0  0  0  0  0  0
   -7.8337    2.9702   -0.0000 C   0  0  0  0  0  0  0  0  0  0  0  0
   -9.1353    2.2247   -0.0000 N   0  0  0  0  0  0  0  0  0  0  0  0
  -10.4370    2.9820   -0.0000 C   0  0  0  0  0  0  0  0  0  0  0  0
   -9.1235    0.7455   -0.0000 C   0  0  0  0  0  0  0  0  0  0  0  0
  -10.4488    4.4848   -0.0000 N   0  0  0  0  0  0  0  0  0  0  0  0
  -11.7387    2.2483   -0.0000 N   0  0  0  0  0  0  0  0  0  0  0  0
  -11.7505    5.2422   -0.0000 C   0  0  0  0  0  0  0  0  0  0  0  0
  -13.0403    3.0057   -0.0000 C   0  0  0  0  0  0  0  0  0  0  0  0
  -13.0522    4.5085   -0.0000 N   0  0  0  0  0  0  0  0  0  0  0  0
  -11.7623    6.7450   -0.0000 N   0  0  0  0  0  0  0  0  0  0  0  0
  -14.3538    2.2720   -0.0000 N   0  0  0  0  0  0  0  0  0  0  0  0
  -13.0640    7.4905   -0.0000 C   0  0  0  0  0  0  0  0  0  0  0  0
  -10.4725    7.4905   -0.0000 C   0  0  0  0  0  0  0  0  0  0  0  0
  -15.6555    3.0293   -0.0000 C   0  0  0  0  0  0  0  0  0  0  0  0
  -13.0640    9.0052   -0.0000 C   0  0  0  0  0  0  0  0  0  0  0  0
  -10.4725    8.9815   -0.0000 C   0  0  0  0  0  0  0  0  0  0  0  0
  -16.9572    2.2957   -0.0000 C   0  0  0  0  0  0  0  0  0  0  0  0
  -11.7860    9.7507   -0.0000 N   0  0  0  0  0  0  0  0  0  0  0  0
  -18.2588    3.0530   -0.0000 C   0  0  0  0  0  0  0  0  0  0  0  0
  -11.7978   11.2535   -0.0000 C   0  0  0  0  0  0  0  0  0  0  0  0
  -18.2707    4.5558   -0.0000 C   0  0  0  0  0  0  0  0  0  0  0  0
  -19.5605    2.3193   -0.0000 C   0  0  0  0  0  0  0  0  0  0  0  0
  -19.5723    5.3132   -0.0000 C   0  0  0  0  0  0  0  0  0  0  0  0
  -20.8622    3.0767   -0.0000 C   0  0  0  0  0  0  0  0  0  0  0  0
  -20.8740    4.5795   -0.0000 C   0  0  0  0  0  0  0  0  0  0  0  0
  -22.1757    5.3368   -0.0000 O   0  0  0  0  0  0  0  0  0  0  0  0
  1  2  1  0  0  0  0
  2  3  2  0  0  0  0
  2  4  1  0  0  0  0
  3  5  1  0  0  0  0
  4  6  2  0  0  0  0
  5  7  2  0  0  0  0
  7  8  1  0  0  0  0
  8  9  1  0  0  0  0
  9 10  1  0  0  0  0
 10 11  1  0  0  0  0
 11 12  1  0  0  0  0
 11 13  1  0  0  0  0
 12 14  2  0  0  0  0
 12 15  1  0  0  0  0
 14 16  1  0  0  0  0
 15 17  2  0  0  0  0
 16 18  2  0  0  0  0
 16 19  1  0  0  0  0
 17 20  1  0  0  0  0
 19 21  1  0  0  0  0
 19 22  1  0  0  0  0
 20 23  1  0  0  0  0
 21 24  1  0  0  0  0
 22 25  1  0  0  0  0
 23 26  1  0  0  0  0
 24 27  1  0  0  0  0
 26 28  1  0  0  0  0
 27 29  1  0  0  0  0
 28 30  2  0  0  0  0
 28 31  1  0  0  0  0
 30 32  1  0  0  0  0
 31 33  2  0  0  0  0
 32 34  2  0  0  0  0
 34 35  1  0  0  0  0
  6  7  1  0  0  0  0
 17 18  1  0  0  0  0
 25 27  1  0  0  0  0
 33 34  1  0  0  0  0
M  END
>  <MolRegNo>
253509

>  <m>
=

>  <Value>
145

>  <Unit>
nM

>  <Type>
Ki

>  <pValue>
6.84

>  <Ligand Efficiency>
0.27

>  <Binding Efficiency>
13.79

>  <Surface Efficiency>
8.48

>  <Assay Index>
67398

>  <Assay Category>


>  <Assay Organism>


>  <Target ID>
19

>  <Target Name>
Estrogen receptor alpha

>  <Target Organism>
Homo sapiens

>  <Target Description>
Target is a single protein chain

>  <Sequence Accession>
P03372

>  <Reference>
J Med Chem 45 (25), 5492-5505 (2002)

>  <Pubmed ID>
12459017

>  <DOI>
10.1021/jm020291h

$$$$
252797
Actelion Java MolfileCreator 1.0

 41 45  0  0  0  0  0  0  0  0999 V2000
    0.0000   -0.0000   -0.0000 Cl  0  0  0  0  0  0  0  0  0  0  0  0
   -1.3129    0.7333   -0.0000 C   0  0  0  0  0  0  0  0  0  0  0  0
   -1.3484    2.2473   -0.0000 C   0  0  0  0  0  0  0  0  0  0  0  0
   -2.6139   -0.0000   -0.0000 C   0  0  0  0  0  0  0  0  0  0  0  0
   -2.6612    3.0042   -0.0000 C   0  0  0  0  0  0  0  0  0  0  0  0
   -3.9268    0.7333   -0.0000 C   0  0  0  0  0  0  0  0  0  0  0  0
   -3.9386    2.2473   -0.0000 C   0  0  0  0  0  0  0  0  0  0  0  0
   -5.2633    2.9924   -0.0000 C   0  0  0  0  0  0  0  0  0  0  0  0
   -6.5526    2.2473   -0.0000 C   0  0  0  0  0  0  0  0  0  0  0  0
   -7.8654    2.9924   -0.0000 C   0  0  0  0  0  0  0  0  0  0  0  0
   -9.1665    2.2473   -0.0000 N   0  0  0  0  0  0  0  0  0  0  0  0
  -10.4675    3.0042   -0.0000 C   0  0  0  0  0  0  0  0  0  0  0  0
   -9.1546    0.7688   -0.0000 C   0  0  0  0  0  0  0  0  0  0  0  0
  -10.4794    4.5064   -0.0000 N   0  0  0  0  0  0  0  0  0  0  0  0
  -11.7804    2.2709   -0.0000 N   0  0  0  0  0  0  0  0  0  0  0  0
  -11.7922    5.2633   -0.0000 C   0  0  0  0  0  0  0  0  0  0  0  0
  -13.0815    3.0279   -0.0000 C   0  0  0  0  0  0  0  0  0  0  0  0
  -13.0933    4.5300   -0.0000 N   0  0  0  0  0  0  0  0  0  0  0  0
  -11.8159    6.7655   -0.0000 N   0  0  0  0  0  0  0  0  0  0  0  0
  -14.3943    2.2946   -0.0000 N   0  0  0  0  0  0  0  0  0  0  0  0
  -10.5148    7.5224   -0.0000 C   0  0  0  0  0  0  0  0  0  0  0  0
  -13.1051    7.5224   -0.0000 C   0  0  0  0  0  0  0  0  0  0  0  0
  -15.6954    3.0515   -0.0000 C   0  0  0  0  0  0  0  0  0  0  0  0
  -10.5267    9.0245   -0.0000 C   0  0  0  0  0  0  0  0  0  0  0  0
  -13.1051    9.0245   -0.0000 C   0  0  0  0  0  0  0  0  0  0  0  0
  -16.9964    2.3182   -0.0000 C   0  0  0  0  0  0  0  0  0  0  0  0
  -11.8277    9.7815   -0.0000 N   0  0  0  0  0  0  0  0  0  0  0  0
  -18.2975    3.0752   -0.0000 C   0  0  0  0  0  0  0  0  0  0  0  0
  -11.8277   11.2836   -0.0000 C   0  0  0  0  0  0  0  0  0  0  0  0
  -18.3093    4.5773   -0.0000 C   0  0  0  0  0  0  0  0  0  0  0  0
  -19.5985    2.3419   -0.0000 C   0  0  0  0  0  0  0  0  0  0  0  0
  -10.5385   12.0288   -0.0000 C   0  0  0  0  0  0  0  0  0  0  0  0
  -19.6103    5.3343   -0.0000 C   0  0  0  0  0  0  0  0  0  0  0  0
  -20.8996    3.0989   -0.0000 C   0  0  0  0  0  0  0  0  0  0  0  0
  -10.5503   13.5309   -0.0000 C   0  0  0  0  0  0  0  0  0  0  0  0
   -9.2729   11.2836   -0.0000 C   0  0  0  0  0  0  0  0  0  0  0  0
  -20.9114    4.6010   -0.0000 C   0  0  0  0  0  0  0  0  0  0  0  0
   -9.2729   14.2879   -0.0000 N   0  0  0  0  0  0  0  0  0  0  0  0
   -7.9837   12.0288   -0.0000 C   0  0  0  0  0  0  0  0  0  0  0  0
  -22.2124    5.3580   -0.0000 O   0  0  0  0  0  0  0  0  0  0  0  0
   -7.9955   13.5546   -0.0000 C   0  0  0  0  0  0  0  0  0  0  0  0
  1  2  1  0  0  0  0
  2  3  2  0  0  0  0
  2  4  1  0  0  0  0
  3  5  1  0  0  0  0
  4  6  2  0  0  0  0
  5  7  2  0  0  0  0
  7  8  1  0  0  0  0
  8  9  1  0  0  0  0
  9 10  1  0  0  0  0
 10 11  1  0  0  0  0
 11 12  1  0  0  0  0
 11 13  1  0  0  0  0
 12 14  2  0  0  0  0
 12 15  1  0  0  0  0
 14 16  1  0  0  0  0
 15 17  2  0  0  0  0
 16 18  2  0  0  0  0
 16 19  1  0  0  0  0
 17 20  1  0  0  0  0
 19 21  1  0  0  0  0
 19 22  1  0  0  0  0
 20 23  1  0  0  0  0
 21 24  1  0  0  0  0
 22 25  1  0  0  0  0
 23 26  1  0  0  0  0
 24 27  1  0  0  0  0
 26 28  1  0  0  0  0
 27 29  1  0  0  0  0
 28 30  2  0  0  0  0
 28 31  1  0  0  0  0
 29 32  1  0  0  0  0
 30 33  1  0  0  0  0
 31 34  2  0  0  0  0
 32 35  2  0  0  0  0
 32 36  1  0  0  0  0
 33 37  2  0  0  0  0
 35 38  1  0  0  0  0
 36 39  2  0  0  0  0
 37 40  1  0  0  0  0
 38 41  2  0  0  0  0
  6  7  1  0  0  0  0
 17 18  1  0  0  0  0
 25 27  1  0  0  0  0
 34 37  1  0  0  0  0
 39 41  1  0  0  0  0
M  END
>  <MolRegNo>
252797

>  <m>
=

>  <Value>
475

>  <Unit>
nM

>  <Type>
Ki

>  <pValue>
6.32

>  <Ligand Efficiency>
0.21

>  <Binding Efficiency>
11.03

>  <Surface Efficiency>
6.76

>  <Assay Index>
67398

>  <Assay Category>


>  <Assay Organism>


>  <Target ID>
19

>  <Target Name>
Estrogen receptor alpha

>  <Target Organism>
Homo sapiens

>  <Target Description>
Target is a single protein chain

>  <Sequence Accession>
P03372

>  <Reference>
J Med Chem 45 (25), 5492-5505 (2002)

>  <Pubmed ID>
12459017

>  <DOI>
10.1021/jm020291h

$$$$
253410
Actelion Java MolfileCreator 1.0

 35 39  0  0  0  0  0  0  0  0999 V2000
    0.0000   -0.0000   -0.0000 O   0  0  0  0  0  0  0  0  0  0  0  0
    1.2665   -0.7767   -0.0000 C   0  0  0  0  0  0  0  0  0  0  0  0
    2.5809   -0.0358   -0.0000 C   0  0  0  0  0  0  0  0  0  0  0  0
    1.2188   -2.2702   -0.0000 C   0  0  0  0  0  0  0  0  0  0  0  0
    3.8594   -0.8125   -0.0000 C   0  0  0  0  0  0  0  0  0  0  0  0
    2.4973   -3.0469   -0.0000 C   0  0  0  0  0  0  0  0  0  0  0  0
    3.7996   -2.2941   -0.0000 C   0  0  0  0  0  0  0  0  0  0  0  0
    5.1618   -0.0717   -0.0000 C   0  0  0  0  0  0  0  0  0  0  0  0
    5.0542   -3.0588   -0.0000 C   0  0  0  0  0  0  0  0  0  0  0  0
    6.4283   -0.8603   -0.0000 C   0  0  0  0  0  0  0  0  0  0  0  0
    6.3686   -2.3539   -0.0000 C   0  0  0  0  0  0  0  0  0  0  0  0
    7.6351   -3.1305   -0.0000 N   0  0  0  0  0  0  0  0  0  0  0  0
    8.9256   -2.3658   -0.0000 C   0  0  0  0  0  0  0  0  0  0  0  0
    8.9136   -0.8483   -0.0000 N   0  0  0  0  0  0  0  0  0  0  0  0
   10.2160   -3.1066   -0.0000 N   0  0  0  0  0  0  0  0  0  0  0  0
   10.2041   -0.0836   -0.0000 C   0  0  0  0  0  0  0  0  0  0  0  0
   11.5184   -2.3419   -0.0000 C   0  0  0  0  0  0  0  0  0  0  0  0
   11.5065   -0.8245   -0.0000 N   0  0  0  0  0  0  0  0  0  0  0  0
   10.1921    1.4338   -0.0000 N   0  0  0  0  0  0  0  0  0  0  0  0
   12.8208   -3.0827   -0.0000 N   0  0  0  0  0  0  0  0  0  0  0  0
   11.4826    2.1866   -0.0000 C   0  0  0  0  0  0  0  0  0  0  0  0
    8.8539    2.1746   -0.0000 C   0  0  0  0  0  0  0  0  0  0  0  0
   14.1113   -2.3180   -0.0000 C   0  0  0  0  0  0  0  0  0  0  0  0
   11.4706    3.7041   -0.0000 C   0  0  0  0  0  0  0  0  0  0  0  0
    8.8658    3.7041   -0.0000 C   0  0  0  0  0  0  0  0  0  0  0  0
   15.4017   -3.0349   -0.0000 C   0  0  0  0  0  0  0  0  0  0  0  0
   10.1563    4.4688   -0.0000 N   0  0  0  0  0  0  0  0  0  0  0  0
   16.6922   -2.2702   -0.0000 C   0  0  0  0  0  0  0  0  0  0  0  0
   10.1443    5.9862   -0.0000 C   0  0  0  0  0  0  0  0  0  0  0  0
   17.9945   -3.0110   -0.0000 C   0  0  0  0  0  0  0  0  0  0  0  0
   17.9826   -4.5046   -0.0000 C   0  0  0  0  0  0  0  0  0  0  0  0
   19.2730   -2.2344   -0.0000 C   0  0  0  0  0  0  0  0  0  0  0  0
   19.2850   -5.2335   -0.0000 C   0  0  0  0  0  0  0  0  0  0  0  0
   20.5635   -2.9513   -0.0000 C   0  0  0  0  0  0  0  0  0  0  0  0
   20.5754   -4.4568   -0.0000 C   0  0  0  0  0  0  0  0  0  0  0  0
  1  2  1  0  0  0  0
  2  3  2  0  0  0  0
  2  4  1  0  0  0  0
  3  5  1  0  0  0  0
  4  6  2  0  0  0  0
  5  7  2  0  0  0  0
  5  8  1  0  0  0  0
  7  9  1  0  0  0  0
  8 10  1  0  0  0  0
  9 11  1  0  0  0  0
 11 12  1  0  0  0  0
 12 13  1  0  0  0  0
 13 14  2  0  0  0  0
 13 15  1  0  0  0  0
 14 16  1  0  0  0  0
 15 17  2  0  0  0  0
 16 18  2  0  0  0  0
 16 19  1  0  0  0  0
 17 20  1  0  0  0  0
 19 21  1  0  0  0  0
 19 22  1  0  0  0  0
 20 23  1  0  0  0  0
 21 24  1  0  0  0  0
 22 25  1  0  0  0  0
 23 26  1  0  0  0  0
 24 27  1  0  0  0  0
 26 28  1  0  0  0  0
 27 29  1  0  0  0  0
 28 30  1  0  0  0  0
 30 31  2  0  0  0  0
 30 32  1  0  0  0  0
 31 33  1  0  0  0  0
 32 34  2  0  0  0  0
 33 35  2  0  0  0  0
  6  7  1  0  0  0  0
 10 11  1  0  0  0  0
 17 18  1  0  0  0  0
 25 27  1  0  0  0  0
 34 35  1  0  0  0  0
M  END
>  <MolRegNo>
253410

>  <m>
=

>  <Value>
1000

>  <Unit>
nM

>  <Type>
Ki

>  <pValue>
6

>  <Ligand Efficiency>
0.23

>  <Binding Efficiency>
12.67

>  <Surface Efficiency>
6.71

>  <Assay Index>
67398

>  <Assay Category>


>  <Assay Organism>


>  <Target ID>
19

>  <Target Name>
Estrogen receptor alpha

>  <Target Organism>
Homo sapiens

>  <Target Description>
Target is a single protein chain

>  <Sequence Accession>
P03372

>  <Reference>
J Med Chem 45 (25), 5492-5505 (2002)

>  <Pubmed ID>
12459017

>  <DOI>
10.1021/jm020291h

$$$$
253226
Actelion Java MolfileCreator 1.0

 35 38  0  0  0  0  0  0  0  0999 V2000
    0.0000   -0.0000   -0.0000 F   0  0  0  0  0  0  0  0  0  0  0  0
   -1.4340   -0.4740   -0.0000 C   0  0  0  0  0  0  0  0  0  0  0  0
   -1.4221   -1.9554   -0.0000 C   0  0  0  0  0  0  0  0  0  0  0  0
   -2.7376    0.2726   -0.0000 C   0  0  0  0  0  0  0  0  0  0  0  0
    0.0000   -2.3939   -0.0000 F   0  0  0  0  0  0  0  0  0  0  0  0
   -2.7258   -2.7021   -0.0000 C   0  0  0  0  0  0  0  0  0  0  0  0
   -4.0175   -0.4740   -0.0000 C   0  0  0  0  0  0  0  0  0  0  0  0
   -4.0294   -1.9554   -0.0000 C   0  0  0  0  0  0  0  0  0  0  0  0
   -5.3330    0.2607   -0.0000 C   0  0  0  0  0  0  0  0  0  0  0  0
   -6.6367   -0.4740   -0.0000 C   0  0  0  0  0  0  0  0  0  0  0  0
   -7.9403    0.2607   -0.0000 C   0  0  0  0  0  0  0  0  0  0  0  0
   -9.2439   -0.4740   -0.0000 N   0  0  0  0  0  0  0  0  0  0  0  0
  -10.5475    0.2726   -0.0000 C   0  0  0  0  0  0  0  0  0  0  0  0
   -9.2439   -1.9554   -0.0000 C   0  0  0  0  0  0  0  0  0  0  0  0
  -10.5594    1.7895   -0.0000 N   0  0  0  0  0  0  0  0  0  0  0  0
  -11.8630   -0.4622   -0.0000 N   0  0  0  0  0  0  0  0  0  0  0  0
  -11.8749    2.5480   -0.0000 C   0  0  0  0  0  0  0  0  0  0  0  0
  -13.1666    0.2963   -0.0000 C   0  0  0  0  0  0  0  0  0  0  0  0
  -13.1785    1.8014   -0.0000 N   0  0  0  0  0  0  0  0  0  0  0  0
  -11.8867    4.0531   -0.0000 N   0  0  0  0  0  0  0  0  0  0  0  0
  -14.4703   -0.4385   -0.0000 N   0  0  0  0  0  0  0  0  0  0  0  0
  -10.6068    4.7879   -0.0000 C   0  0  0  0  0  0  0  0  0  0  0  0
  -13.1903    4.7879   -0.0000 C   0  0  0  0  0  0  0  0  0  0  0  0
  -15.7739    0.3200   -0.0000 C   0  0  0  0  0  0  0  0  0  0  0  0
  -10.6186    6.2930   -0.0000 C   0  0  0  0  0  0  0  0  0  0  0  0
  -13.1903    6.2930   -0.0000 C   0  0  0  0  0  0  0  0  0  0  0  0
  -17.0775   -0.4148   -0.0000 C   0  0  0  0  0  0  0  0  0  0  0  0
  -11.9223    7.0514   -0.0000 N   0  0  0  0  0  0  0  0  0  0  0  0
  -18.3812    0.3437   -0.0000 C   0  0  0  0  0  0  0  0  0  0  0  0
  -18.3812    1.8606   -0.0000 C   0  0  0  0  0  0  0  0  0  0  0  0
  -19.6729   -0.3792   -0.0000 C   0  0  0  0  0  0  0  0  0  0  0  0
  -19.6848    2.6191   -0.0000 C   0  0  0  0  0  0  0  0  0  0  0  0
  -20.9766    0.3674   -0.0000 C   0  0  0  0  0  0  0  0  0  0  0  0
  -20.9884    1.8843   -0.0000 C   0  0  0  0  0  0  0  0  0  0  0  0
  -22.2920    2.6428   -0.0000 O   0  0  0  0  0  0  0  0  0  0  0  0
  1  2  1  0  0  0  0
  2  3  2  0  0  0  0
  2  4  1  0  0  0  0
  3  5  1  0  0  0  0
  3  6  1  0  0  0  0
  4  7  2  0  0  0  0
  6  8  2  0  0  0  0
  7  9  1  0  0  0  0
  9 10  1  0  0  0  0
 10 11  1  0  0  0  0
 11 12  1  0  0  0  0
 12 13  1  0  0  0  0
 12 14  1  0  0  0  0
 13 15  2  0  0  0  0
 13 16  1  0  0  0  0
 15 17  1  0  0  0  0
 16 18  2  0  0  0  0
 17 19  2  0  0  0  0
 17 20  1  0  0  0  0
 18 21  1  0  0  0  0
 20 22  1  0  0  0  0
 20 23  1  0  0  0  0
 21 24  1  0  0  0  0
 22 25  1  0  0  0  0
 23 26  1  0  0  0  0
 24 27  1  0  0  0  0
 25 28  1  0  0  0  0
 27 29  1  0  0  0  0
 29 30  2  0  0  0  0
 29 31  1  0  0  0  0
 30 32  1  0  0  0  0
 31 33  2  0  0  0  0
 32 34  2  0  0  0  0
 34 35  1  0  0  0  0
  7  8  1  0  0  0  0
 18 19  1  0  0  0  0
 26 28  1  0  0  0  0
 33 34  1  0  0  0  0
M  END
>  <MolRegNo>
253226

>  <m>
=

>  <Value>
200

>  <Unit>
nM

>  <Type>
Ki

>  <pValue>
6.7

>  <Ligand Efficiency>
0.26

>  <Binding Efficiency>
13.85

>  <Surface Efficiency>
7.49

>  <Assay Index>
67398

>  <Assay Category>


>  <Assay Organism>


>  <Target ID>
19

>  <Target Name>
Estrogen receptor alpha

>  <Target Organism>
Homo sapiens

>  <Target Description>
Target is a single protein chain

>  <Sequence Accession>
P03372

>  <Reference>
J Med Chem 45 (25), 5492-5505 (2002)

>  <Pubmed ID>
12459017

>  <DOI>
10.1021/jm020291h

$$$$
253362
Actelion Java MolfileCreator 1.0

 40 44  0  0  0  0  0  0  0  0999 V2000
    0.0000   -0.0000   -0.0000 Cl  0  0  0  0  0  0  0  0  0  0  0  0
   -1.3120    0.7328   -0.0000 C   0  0  0  0  0  0  0  0  0  0  0  0
   -1.3475    2.2458   -0.0000 C   0  0  0  0  0  0  0  0  0  0  0  0
   -2.6240   -0.0000   -0.0000 C   0  0  0  0  0  0  0  0  0  0  0  0
   -2.6594    3.0022   -0.0000 C   0  0  0  0  0  0  0  0  0  0  0  0
   -3.9242    0.7328   -0.0000 C   0  0  0  0  0  0  0  0  0  0  0  0
   -3.9360    2.2458   -0.0000 C   0  0  0  0  0  0  0  0  0  0  0  0
   -5.2598    2.9904   -0.0000 C   0  0  0  0  0  0  0  0  0  0  0  0
   -6.5481    2.2458   -0.0000 C   0  0  0  0  0  0  0  0  0  0  0  0
   -7.8601    2.9904   -0.0000 C   0  0  0  0  0  0  0  0  0  0  0  0
   -9.1603    2.2458   -0.0000 N   0  0  0  0  0  0  0  0  0  0  0  0
  -10.4605    3.0022   -0.0000 C   0  0  0  0  0  0  0  0  0  0  0  0
   -9.1485    0.7683   -0.0000 C   0  0  0  0  0  0  0  0  0  0  0  0
  -10.4723    4.5033   -0.0000 N   0  0  0  0  0  0  0  0  0  0  0  0
  -11.7725    2.2694   -0.0000 N   0  0  0  0  0  0  0  0  0  0  0  0
  -11.7843    5.2598   -0.0000 C   0  0  0  0  0  0  0  0  0  0  0  0
  -13.0726    3.0259   -0.0000 C   0  0  0  0  0  0  0  0  0  0  0  0
  -13.0845    4.5270   -0.0000 N   0  0  0  0  0  0  0  0  0  0  0  0
  -11.8079    6.7609   -0.0000 N   0  0  0  0  0  0  0  0  0  0  0  0
  -14.3846    2.2930   -0.0000 N   0  0  0  0  0  0  0  0  0  0  0  0
  -10.5078    7.5174   -0.0000 C   0  0  0  0  0  0  0  0  0  0  0  0
  -13.0963    7.5174   -0.0000 C   0  0  0  0  0  0  0  0  0  0  0  0
  -15.6848    3.0495   -0.0000 C   0  0  0  0  0  0  0  0  0  0  0  0
  -10.5196    9.0066   -0.0000 C   0  0  0  0  0  0  0  0  0  0  0  0
  -13.0963    9.0185   -0.0000 C   0  0  0  0  0  0  0  0  0  0  0  0
  -16.9850    2.3167   -0.0000 C   0  0  0  0  0  0  0  0  0  0  0  0
  -11.8197    9.7749   -0.0000 N   0  0  0  0  0  0  0  0  0  0  0  0
  -18.2851    3.0731   -0.0000 C   0  0  0  0  0  0  0  0  0  0  0  0
  -11.8197   11.2760   -0.0000 C   0  0  0  0  0  0  0  0  0  0  0  0
  -18.2970    4.5742   -0.0000 C   0  0  0  0  0  0  0  0  0  0  0  0
  -19.5853    2.3403   -0.0000 C   0  0  0  0  0  0  0  0  0  0  0  0
  -13.1199   12.0207   -0.0000 C   0  0  0  0  0  0  0  0  0  0  0  0
  -10.5314   12.0089   -0.0000 C   0  0  0  0  0  0  0  0  0  0  0  0
  -19.5971    5.3307   -0.0000 C   0  0  0  0  0  0  0  0  0  0  0  0
  -20.8855    3.0968   -0.0000 C   0  0  0  0  0  0  0  0  0  0  0  0
  -13.1199   13.5218   -0.0000 C   0  0  0  0  0  0  0  0  0  0  0  0
  -10.5432   13.5100   -0.0000 C   0  0  0  0  0  0  0  0  0  0  0  0
  -20.8973    4.5979   -0.0000 C   0  0  0  0  0  0  0  0  0  0  0  0
  -11.8434   14.2783   -0.0000 C   0  0  0  0  0  0  0  0  0  0  0  0
  -22.1975    5.3543   -0.0000 O   0  0  0  0  0  0  0  0  0  0  0  0
  1  2  1  0  0  0  0
  2  3  2  0  0  0  0
  2  4  1  0  0  0  0
  3  5  1  0  0  0  0
  4  6  2  0  0  0  0
  5  7  2  0  0  0  0
  7  8  1  0  0  0  0
  8  9  1  0  0  0  0
  9 10  1  0  0  0  0
 10 11  1  0  0  0  0
 11 12  1  0  0  0  0
 11 13  1  0  0  0  0
 12 14  2  0  0  0  0
 12 15  1  0  0  0  0
 14 16  1  0  0  0  0
 15 17  2  0  0  0  0
 16 18  2  0  0  0  0
 16 19  1  0  0  0  0
 17 20  1  0  0  0  0
 19 21  1  0  0  0  0
 19 22  1  0  0  0  0
 20 23  1  0  0  0  0
 21 24  1  0  0  0  0
 22 25  1  0  0  0  0
 23 26  1  0  0  0  0
 24 27  1  0  0  0  0
 26 28  1  0  0  0  0
 27 29  1  0  0  0  0
 28 30  2  0  0  0  0
 28 31  1  0  0  0  0
 29 32  2  0  0  0  0
 29 33  1  0  0  0  0
 30 34  1  0  0  0  0
 31 35  2  0  0  0  0
 32 36  1  0  0  0  0
 33 37  2  0  0  0  0
 34 38  2  0  0  0  0
 36 39  2  0  0  0  0
 38 40  1  0  0  0  0
  6  7  1  0  0  0  0
 17 18  1  0  0  0  0
 25 27  1  0  0  0  0
 35 38  1  0  0  0  0
 37 39  1  0  0  0  0
M  END
>  <MolRegNo>
253362

>  <m>
=

>  <Value>
6320

>  <Unit>
nM

>  <Type>
Ki

>  <pValue>
5.2

>  <Ligand Efficiency>
0.18

>  <Binding Efficiency>
9.32

>  <Surface Efficiency>
6.45

>  <Assay Index>
67398

>  <Assay Category>


>  <Assay Organism>


>  <Target ID>
19

>  <Target Name>
Estrogen receptor alpha

>  <Target Organism>
Homo sapiens

>  <Target Description>
Target is a single protein chain

>  <Sequence Accession>
P03372

>  <Reference>
J Med Chem 45 (25), 5492-5505 (2002)

>  <Pubmed ID>
12459017

>  <DOI>
10.1021/jm020291h

$$$$
253009
Actelion Java MolfileCreator 1.0

 43 47  0  0  0  0  0  0  0  0999 V2000
    0.0000   -0.0000   -0.0000 Cl  0  0  0  0  0  0  0  0  0  0  0  0
   -1.3036    0.7466   -0.0000 C   0  0  0  0  0  0  0  0  0  0  0  0
   -1.3391    2.2516   -0.0000 C   0  0  0  0  0  0  0  0  0  0  0  0
   -2.6190   -0.0000   -0.0000 C   0  0  0  0  0  0  0  0  0  0  0  0
   -2.6546    2.9982   -0.0000 C   0  0  0  0  0  0  0  0  0  0  0  0
   -3.9226    0.7466   -0.0000 C   0  0  0  0  0  0  0  0  0  0  0  0
   -3.9344    2.2516   -0.0000 C   0  0  0  0  0  0  0  0  0  0  0  0
   -5.2499    2.9864   -0.0000 C   0  0  0  0  0  0  0  0  0  0  0  0
   -6.5297    2.2516   -0.0000 C   0  0  0  0  0  0  0  0  0  0  0  0
   -7.8452    2.9864   -0.0000 C   0  0  0  0  0  0  0  0  0  0  0  0
   -9.1487    2.2516   -0.0000 N   0  0  0  0  0  0  0  0  0  0  0  0
  -10.4523    2.9982   -0.0000 C   0  0  0  0  0  0  0  0  0  0  0  0
   -9.1369    0.7703   -0.0000 C   0  0  0  0  0  0  0  0  0  0  0  0
  -10.4642    4.5151   -0.0000 N   0  0  0  0  0  0  0  0  0  0  0  0
  -11.7559    2.2635   -0.0000 N   0  0  0  0  0  0  0  0  0  0  0  0
  -11.7677    5.2736   -0.0000 C   0  0  0  0  0  0  0  0  0  0  0  0
  -13.0595    3.0219   -0.0000 C   0  0  0  0  0  0  0  0  0  0  0  0
  -13.0713    4.5270   -0.0000 N   0  0  0  0  0  0  0  0  0  0  0  0
  -11.7796    6.7549   -0.0000 N   0  0  0  0  0  0  0  0  0  0  0  0
  -14.3749    2.2872   -0.0000 N   0  0  0  0  0  0  0  0  0  0  0  0
  -13.0713    7.5015   -0.0000 C   0  0  0  0  0  0  0  0  0  0  0  0
  -10.4997    7.5015   -0.0000 C   0  0  0  0  0  0  0  0  0  0  0  0
  -15.6785    3.0456   -0.0000 C   0  0  0  0  0  0  0  0  0  0  0  0
  -13.0832    9.0065   -0.0000 C   0  0  0  0  0  0  0  0  0  0  0  0
  -10.4997    9.0065   -0.0000 C   0  0  0  0  0  0  0  0  0  0  0  0
  -16.9821    2.3109   -0.0000 C   0  0  0  0  0  0  0  0  0  0  0  0
  -11.7915    9.7531   -0.0000 N   0  0  0  0  0  0  0  0  0  0  0  0
  -18.2856    3.0693   -0.0000 C   0  0  0  0  0  0  0  0  0  0  0  0
  -11.7915   11.2582   -0.0000 C   0  0  0  0  0  0  0  0  0  0  0  0
  -18.2975    4.5862   -0.0000 C   0  0  0  0  0  0  0  0  0  0  0  0
  -19.5892    2.3464   -0.0000 C   0  0  0  0  0  0  0  0  0  0  0  0
  -10.5116   12.0166   -0.0000 C   0  0  0  0  0  0  0  0  0  0  0  0
  -19.6011    5.3447   -0.0000 C   0  0  0  0  0  0  0  0  0  0  0  0
  -20.8928    3.0930   -0.0000 C   0  0  0  0  0  0  0  0  0  0  0  0
   -9.2317   11.2819   -0.0000 O   0  0  0  0  0  0  0  0  0  0  0  0
  -10.5116   13.5217   -0.0000 C   0  0  0  0  0  0  0  0  0  0  0  0
  -20.9046    4.6099   -0.0000 C   0  0  0  0  0  0  0  0  0  0  0  0
   -9.2317   14.2682   -0.0000 C   0  0  0  0  0  0  0  0  0  0  0  0
  -11.8152   14.2801   -0.0000 C   0  0  0  0  0  0  0  0  0  0  0  0
  -22.2082    5.3684   -0.0000 O   0  0  0  0  0  0  0  0  0  0  0  0
   -9.2435   15.7733   -0.0000 C   0  0  0  0  0  0  0  0  0  0  0  0
  -11.8270   15.7614   -0.0000 C   0  0  0  0  0  0  0  0  0  0  0  0
  -10.5471   16.5436   -0.0000 C   0  0  0  0  0  0  0  0  0  0  0  0
  1  2  1  0  0  0  0
  2  3  2  0  0  0  0
  2  4  1  0  0  0  0
  3  5  1  0  0  0  0
  4  6  2  0  0  0  0
  5  7  2  0  0  0  0
  7  8  1  0  0  0  0
  8  9  1  0  0  0  0
  9 10  1  0  0  0  0
 10 11  1  0  0  0  0
 11 12  1  0  0  0  0
 11 13  1  0  0  0  0
 12 14  2  0  0  0  0
 12 15  1  0  0  0  0
 14 16  1  0  0  0  0
 15 17  2  0  0  0  0
 16 18  2  0  0  0  0
 16 19  1  0  0  0  0
 17 20  1  0  0  0  0
 19 21  1  0  0  0  0
 19 22  1  0  0  0  0
 20 23  1  0  0  0  0
 21 24  1  0  0  0  0
 22 25  1  0  0  0  0
 23 26  1  0  0  0  0
 24 27  1  0  0  0  0
 26 28  1  0  0  0  0
 27 29  1  0  0  0  0
 28 30  2  0  0  0  0
 28 31  1  0  0  0  0
 29 32  1  0  0  0  0
 30 33  1  0  0  0  0
 31 34  2  0  0  0  0
 32 35  2  0  0  0  0
 32 36  1  0  0  0  0
 33 37  2  0  0  0  0
 36 38  2  0  0  0  0
 36 39  1  0  0  0  0
 37 40  1  0  0  0  0
 38 41  1  0  0  0  0
 39 42  2  0  0  0  0
 41 43  2  0  0  0  0
  6  7  1  0  0  0  0
 17 18  1  0  0  0  0
 25 27  1  0  0  0  0
 34 37  1  0  0  0  0
 42 43  1  0  0  0  0
M  END
>  <MolRegNo>
253009

>  <m>
=

>  <Value>
2040

>  <Unit>
nM

>  <Type>
Ki

>  <pValue>
5.69

>  <Ligand Efficiency>
0.18

>  <Binding Efficiency>
9.48

>  <Surface Efficiency>
5.82

>  <Assay Index>
67398

>  <Assay Category>


>  <Assay Organism>


>  <Target ID>
19

>  <Target Name>
Estrogen receptor alpha

>  <Target Organism>
Homo sapiens

>  <Target Description>
Target is a single protein chain

>  <Sequence Accession>
P03372

>  <Reference>
J Med Chem 45 (25), 5492-5505 (2002)

>  <Pubmed ID>
12459017

>  <DOI>
10.1021/jm020291h

$$$$
253235
Actelion Java MolfileCreator 1.0

 35 38  0  0  0  0  0  0  0  0999 V2000
    0.0000   -0.0000   -0.0000 O   0  0  0  0  0  0  0  0  0  0  0  0
    1.3327   -0.6723   -0.0000 C   0  0  0  0  0  0  0  0  0  0  0  0
    2.5933    0.1681   -0.0000 C   0  0  0  0  0  0  0  0  0  0  0  0
    1.4167   -2.1731   -0.0000 C   0  0  0  0  0  0  0  0  0  0  0  0
    3.9260   -0.5043   -0.0000 C   0  0  0  0  0  0  0  0  0  0  0  0
    2.7494   -2.8334   -0.0000 C   0  0  0  0  0  0  0  0  0  0  0  0
    3.9860   -2.0050   -0.0000 C   0  0  0  0  0  0  0  0  0  0  0  0
    5.3186   -2.6773   -0.0000 C   0  0  0  0  0  0  0  0  0  0  0  0
    6.5793   -1.8369   -0.0000 C   0  0  0  0  0  0  0  0  0  0  0  0
    7.9119   -2.5092   -0.0000 N   0  0  0  0  0  0  0  0  0  0  0  0
    9.1606   -1.6688   -0.0000 C   0  0  0  0  0  0  0  0  0  0  0  0
    9.0645   -0.1441   -0.0000 N   0  0  0  0  0  0  0  0  0  0  0  0
   10.4932   -2.3412   -0.0000 N   0  0  0  0  0  0  0  0  0  0  0  0
   10.3131    0.6963   -0.0000 C   0  0  0  0  0  0  0  0  0  0  0  0
   11.7538   -1.5007   -0.0000 C   0  0  0  0  0  0  0  0  0  0  0  0
   11.6578    0.0240   -0.0000 N   0  0  0  0  0  0  0  0  0  0  0  0
   10.2171    2.2211   -0.0000 N   0  0  0  0  0  0  0  0  0  0  0  0
   13.0985   -2.1611   -0.0000 N   0  0  0  0  0  0  0  0  0  0  0  0
   11.4657    3.0495   -0.0000 C   0  0  0  0  0  0  0  0  0  0  0  0
    8.8484    2.8934   -0.0000 C   0  0  0  0  0  0  0  0  0  0  0  0
   14.3471   -1.3087   -0.0000 C   0  0  0  0  0  0  0  0  0  0  0  0
   13.1826   -3.6618   -0.0000 C   0  0  0  0  0  0  0  0  0  0  0  0
   11.3697    4.5743   -0.0000 C   0  0  0  0  0  0  0  0  0  0  0  0
    8.7644    4.4302   -0.0000 C   0  0  0  0  0  0  0  0  0  0  0  0
   15.6798   -1.9690   -0.0000 C   0  0  0  0  0  0  0  0  0  0  0  0
   10.0130    5.2706   -0.0000 N   0  0  0  0  0  0  0  0  0  0  0  0
   16.9284   -1.1166   -0.0000 C   0  0  0  0  0  0  0  0  0  0  0  0
   18.2731   -1.7769   -0.0000 C   0  0  0  0  0  0  0  0  0  0  0  0
   18.3571   -3.2776   -0.0000 C   0  0  0  0  0  0  0  0  0  0  0  0
   19.5097   -0.9245   -0.0000 C   0  0  0  0  0  0  0  0  0  0  0  0
   19.6898   -3.9380   -0.0000 C   0  0  0  0  0  0  0  0  0  0  0  0
   20.8424   -1.5728   -0.0000 C   0  0  0  0  0  0  0  0  0  0  0  0
   20.9384   -3.0975   -0.0000 C   0  0  0  0  0  0  0  0  0  0  0  0
   22.2831   -3.7459   -0.0000 C   0  0  0  0  0  0  0  0  0  0  0  0
   23.4357   -4.3101   -0.0000 N   0  0  0  0  0  0  0  0  0  0  0  0
  1  2  1  0  0  0  0
  2  3  2  0  0  0  0
  2  4  1  0  0  0  0
  3  5  1  0  0  0  0
  4  6  2  0  0  0  0
  5  7  2  0  0  0  0
  7  8  1  0  0  0  0
  8  9  1  0  0  0  0
  9 10  1  0  0  0  0
 10 11  1  0  0  0  0
 11 12  2  0  0  0  0
 11 13  1  0  0  0  0
 12 14  1  0  0  0  0
 13 15  2  0  0  0  0
 14 16  2  0  0  0  0
 14 17  1  0  0  0  0
 15 18  1  0  0  0  0
 17 19  1  0  0  0  0
 17 20  1  0  0  0  0
 18 21  1  0  0  0  0
 18 22  1  0  0  0  0
 19 23  1  0  0  0  0
 20 24  1  0  0  0  0
 21 25  1  0  0  0  0
 23 26  1  0  0  0  0
 25 27  1  0  0  0  0
 27 28  1  0  0  0  0
 28 29  2  0  0  0  0
 28 30  1  0  0  0  0
 29 31  1  0  0  0  0
 30 32  2  0  0  0  0
 31 33  2  0  0  0  0
 33 34  1  0  0  0  0
 34 35  3  0  0  0  0
  6  7  1  0  0  0  0
 15 16  1  0  0  0  0
 24 26  1  0  0  0  0
 32 33  1  0  0  0  0
M  END
>  <MolRegNo>
253235

>  <m>
=

>  <Value>
570

>  <Unit>
nM

>  <Type>
Ki

>  <pValue>
6.24

>  <Ligand Efficiency>
0.24

>  <Binding Efficiency>
13.21

>  <Surface Efficiency>
5.51

>  <Assay Index>
67398

>  <Assay Category>


>  <Assay Organism>


>  <Target ID>
19

>  <Target Name>
Estrogen receptor alpha

>  <Target Organism>
Homo sapiens

>  <Target Description>
Target is a single protein chain

>  <Sequence Accession>
P03372

>  <Reference>
J Med Chem 45 (25), 5492-5505 (2002)

>  <Pubmed ID>
12459017

>  <DOI>
10.1021/jm020291h

$$$$
252923
Actelion Java MolfileCreator 1.0

 42 46  0  0  0  0  0  0  0  0999 V2000
    0.0000   -0.0000   -0.0000 Cl  0  0  0  0  0  0  0  0  0  0  0  0
   -1.3113    0.7325   -0.0000 C   0  0  0  0  0  0  0  0  0  0  0  0
   -2.6109   -0.0000   -0.0000 C   0  0  0  0  0  0  0  0  0  0  0  0
   -1.3468    2.2446   -0.0000 C   0  0  0  0  0  0  0  0  0  0  0  0
   -3.9222    0.7325   -0.0000 C   0  0  0  0  0  0  0  0  0  0  0  0
   -2.6581    3.0007   -0.0000 C   0  0  0  0  0  0  0  0  0  0  0  0
   -3.9340    2.2328   -0.0000 C   0  0  0  0  0  0  0  0  0  0  0  0
   -5.2572    2.9771   -0.0000 C   0  0  0  0  0  0  0  0  0  0  0  0
   -6.5449    2.2328   -0.0000 C   0  0  0  0  0  0  0  0  0  0  0  0
   -7.8563    2.9771   -0.0000 C   0  0  0  0  0  0  0  0  0  0  0  0
   -9.1558    2.2328   -0.0000 N   0  0  0  0  0  0  0  0  0  0  0  0
  -10.4553    2.9889   -0.0000 C   0  0  0  0  0  0  0  0  0  0  0  0
   -9.1440    0.7561   -0.0000 C   0  0  0  0  0  0  0  0  0  0  0  0
  -10.4672    4.4893   -0.0000 N   0  0  0  0  0  0  0  0  0  0  0  0
  -11.7667    2.2565   -0.0000 N   0  0  0  0  0  0  0  0  0  0  0  0
  -11.7785    5.2454   -0.0000 C   0  0  0  0  0  0  0  0  0  0  0  0
  -13.0662    3.0126   -0.0000 C   0  0  0  0  0  0  0  0  0  0  0  0
  -13.0780    4.5129   -0.0000 N   0  0  0  0  0  0  0  0  0  0  0  0
  -11.8021    6.7458   -0.0000 N   0  0  0  0  0  0  0  0  0  0  0  0
  -14.3776    2.2801   -0.0000 N   0  0  0  0  0  0  0  0  0  0  0  0
  -10.5144    7.4900   -0.0000 C   0  0  0  0  0  0  0  0  0  0  0  0
  -13.1017    7.4782   -0.0000 C   0  0  0  0  0  0  0  0  0  0  0  0
  -15.6771    3.0362   -0.0000 C   0  0  0  0  0  0  0  0  0  0  0  0
  -10.5262    8.9904   -0.0000 C   0  0  0  0  0  0  0  0  0  0  0  0
  -13.1135    8.9904   -0.0000 C   0  0  0  0  0  0  0  0  0  0  0  0
  -16.9766    2.3037   -0.0000 C   0  0  0  0  0  0  0  0  0  0  0  0
  -11.8376    9.7583   -0.0000 N   0  0  0  0  0  0  0  0  0  0  0  0
  -18.2762    3.0598   -0.0000 C   0  0  0  0  0  0  0  0  0  0  0  0
  -11.8376   11.2351   -0.0000 C   0  0  0  0  0  0  0  0  0  0  0  0
  -19.5757    2.3273   -0.0000 C   0  0  0  0  0  0  0  0  0  0  0  0
  -18.2880    4.5602   -0.0000 C   0  0  0  0  0  0  0  0  0  0  0  0
  -10.5499   11.9912   -0.0000 O   0  0  0  0  0  0  0  0  0  0  0  0
  -13.1371   12.0030   -0.0000 N   0  0  0  0  0  0  0  0  0  0  0  0
  -20.8752    3.0834   -0.0000 C   0  0  0  0  0  0  0  0  0  0  0  0
  -19.5875    5.3163   -0.0000 C   0  0  0  0  0  0  0  0  0  0  0  0
  -13.1371   13.5033   -0.0000 C   0  0  0  0  0  0  0  0  0  0  0  0
  -14.4366   11.2705   -0.0000 C   0  0  0  0  0  0  0  0  0  0  0  0
  -20.8871    4.5838   -0.0000 C   0  0  0  0  0  0  0  0  0  0  0  0
  -14.4366   14.2712   -0.0000 C   0  0  0  0  0  0  0  0  0  0  0  0
  -15.7362   12.0384   -0.0000 C   0  0  0  0  0  0  0  0  0  0  0  0
  -22.1866    5.3399   -0.0000 O   0  0  0  0  0  0  0  0  0  0  0  0
  -15.7362   13.5506   -0.0000 O   0  0  0  0  0  0  0  0  0  0  0  0
  1  2  1  0  0  0  0
  2  3  2  0  0  0  0
  2  4  1  0  0  0  0
  3  5  1  0  0  0  0
  4  6  2  0  0  0  0
  5  7  2  0  0  0  0
  7  8  1  0  0  0  0
  8  9  1  0  0  0  0
  9 10  1  0  0  0  0
 10 11  1  0  0  0  0
 11 12  1  0  0  0  0
 11 13  1  0  0  0  0
 12 14  2  0  0  0  0
 12 15  1  0  0  0  0
 14 16  1  0  0  0  0
 15 17  2  0  0  0  0
 16 18  2  0  0  0  0
 16 19  1  0  0  0  0
 17 20  1  0  0  0  0
 19 21  1  0  0  0  0
 19 22  1  0  0  0  0
 20 23  1  0  0  0  0
 21 24  1  0  0  0  0
 22 25  1  0  0  0  0
 23 26  1  0  0  0  0
 24 27  1  0  0  0  0
 26 28  1  0  0  0  0
 27 29  1  0  0  0  0
 28 30  2  0  0  0  0
 28 31  1  0  0  0  0
 29 32  2  0  0  0  0
 29 33  1  0  0  0  0
 30 34  1  0  0  0  0
 31 35  2  0  0  0  0
 33 36  1  0  0  0  0
 33 37  1  0  0  0  0
 34 38  2  0  0  0  0
 36 39  1  0  0  0  0
 37 40  1  0  0  0  0
 38 41  1  0  0  0  0
 39 42  1  0  0  0  0
  6  7  1  0  0  0  0
 17 18  1  0  0  0  0
 25 27  1  0  0  0  0
 35 38  1  0  0  0  0
 40 42  1  0  0  0  0
M  END
>  <MolRegNo>
252923

>  <m>
=

>  <Value>
2360

>  <Unit>
nM

>  <Type>
Ki

>  <pValue>
5.63

>  <Ligand Efficiency>
0.18

>  <Binding Efficiency>
9.45

>  <Surface Efficiency>
5.11

>  <Assay Index>
67398

>  <Assay Category>


>  <Assay Organism>


>  <Target ID>
19

>  <Target Name>
Estrogen receptor alpha

>  <Target Organism>
Homo sapiens

>  <Target Description>
Target is a single protein chain

>  <Sequence Accession>
P03372

>  <Reference>
J Med Chem 45 (25), 5492-5505 (2002)

>  <Pubmed ID>
12459017

>  <DOI>
10.1021/jm020291h

$$$$
252822
Actelion Java MolfileCreator 1.0

 44 48  0  0  0  0  0  0  0  0999 V2000
    0.0000   -0.0000   -0.0000 Cl  0  0  0  0  0  0  0  0  0  0  0  0
   -1.3128    0.7333   -0.0000 C   0  0  0  0  0  0  0  0  0  0  0  0
   -2.6137   -0.0000   -0.0000 C   0  0  0  0  0  0  0  0  0  0  0  0
   -1.3482    2.2471   -0.0000 C   0  0  0  0  0  0  0  0  0  0  0  0
   -3.9265    0.7333   -0.0000 C   0  0  0  0  0  0  0  0  0  0  0  0
   -2.6610    3.0040   -0.0000 C   0  0  0  0  0  0  0  0  0  0  0  0
   -3.9383    2.2352   -0.0000 C   0  0  0  0  0  0  0  0  0  0  0  0
   -5.2629    2.9803   -0.0000 C   0  0  0  0  0  0  0  0  0  0  0  0
   -6.5520    2.2352   -0.0000 C   0  0  0  0  0  0  0  0  0  0  0  0
   -7.8647    2.9803   -0.0000 C   0  0  0  0  0  0  0  0  0  0  0  0
   -9.1657    2.2352   -0.0000 N   0  0  0  0  0  0  0  0  0  0  0  0
  -10.4666    2.9922   -0.0000 C   0  0  0  0  0  0  0  0  0  0  0  0
   -9.1539    0.7569   -0.0000 C   0  0  0  0  0  0  0  0  0  0  0  0
  -10.4784    4.4941   -0.0000 N   0  0  0  0  0  0  0  0  0  0  0  0
  -11.7794    2.2589   -0.0000 N   0  0  0  0  0  0  0  0  0  0  0  0
  -11.7912    5.2510   -0.0000 C   0  0  0  0  0  0  0  0  0  0  0  0
  -13.0803    3.0158   -0.0000 C   0  0  0  0  0  0  0  0  0  0  0  0
  -13.0921    4.5178   -0.0000 N   0  0  0  0  0  0  0  0  0  0  0  0
  -11.8149    6.7530   -0.0000 N   0  0  0  0  0  0  0  0  0  0  0  0
  -14.3931    2.2826   -0.0000 N   0  0  0  0  0  0  0  0  0  0  0  0
  -13.1158    7.4863   -0.0000 C   0  0  0  0  0  0  0  0  0  0  0  0
  -10.5258    7.4981   -0.0000 C   0  0  0  0  0  0  0  0  0  0  0  0
  -15.6940    3.0395   -0.0000 C   0  0  0  0  0  0  0  0  0  0  0  0
  -13.1276    9.0001   -0.0000 C   0  0  0  0  0  0  0  0  0  0  0  0
  -10.5376    9.0001   -0.0000 C   0  0  0  0  0  0  0  0  0  0  0  0
  -16.9950    2.3062   -0.0000 C   0  0  0  0  0  0  0  0  0  0  0  0
  -11.8503    9.7688   -0.0000 N   0  0  0  0  0  0  0  0  0  0  0  0
  -18.2959    3.0631   -0.0000 C   0  0  0  0  0  0  0  0  0  0  0  0
  -11.8503   11.2472   -0.0000 S   0  0  0  0  0  0  0  0  0  0  0  0
  -18.3077    4.5651   -0.0000 C   0  0  0  0  0  0  0  0  0  0  0  0
  -19.5968    2.3299   -0.0000 C   0  0  0  0  0  0  0  0  0  0  0  0
  -10.5612   12.0041   -0.0000 O   0  0  0  0  0  0  0  0  0  0  0  0
  -13.1513   12.0159   -0.0000 O   0  0  0  0  0  0  0  0  0  0  0  0
  -11.8740   12.7610   -0.0000 C   0  0  0  0  0  0  0  0  0  0  0  0
  -19.6086    5.3220   -0.0000 C   0  0  0  0  0  0  0  0  0  0  0  0
  -20.8978    3.0868   -0.0000 C   0  0  0  0  0  0  0  0  0  0  0  0
  -10.7268   13.7426   -0.0000 C   0  0  0  0  0  0  0  0  0  0  0  0
  -20.9096    4.5888   -0.0000 C   0  0  0  0  0  0  0  0  0  0  0  0
   -9.3431   13.2459   -0.0000 C   0  0  0  0  0  0  0  0  0  0  0  0
  -11.0106   15.2209   -0.0000 C   0  0  0  0  0  0  0  0  0  0  0  0
  -22.2105    5.3457   -0.0000 O   0  0  0  0  0  0  0  0  0  0  0  0
   -8.2195   14.2275   -0.0000 C   0  0  0  0  0  0  0  0  0  0  0  0
   -9.8871   16.1789   -0.0000 C   0  0  0  0  0  0  0  0  0  0  0  0
   -8.4916   15.7058   -0.0000 C   0  0  0  0  0  0  0  0  0  0  0  0
  1  2  1  0  0  0  0
  2  3  2  0  0  0  0
  2  4  1  0  0  0  0
  3  5  1  0  0  0  0
  4  6  2  0  0  0  0
  5  7  2  0  0  0  0
  7  8  1  0  0  0  0
  8  9  1  0  0  0  0
  9 10  1  0  0  0  0
 10 11  1  0  0  0  0
 11 12  1  0  0  0  0
 11 13  1  0  0  0  0
 12 14  2  0  0  0  0
 12 15  1  0  0  0  0
 14 16  1  0  0  0  0
 15 17  2  0  0  0  0
 16 18  2  0  0  0  0
 16 19  1  0  0  0  0
 17 20  1  0  0  0  0
 19 21  1  0  0  0  0
 19 22  1  0  0  0  0
 20 23  1  0  0  0  0
 21 24  1  0  0  0  0
 22 25  1  0  0  0  0
 23 26  1  0  0  0  0
 24 27  1  0  0  0  0
 26 28  1  0  0  0  0
 27 29  1  0  0  0  0
 28 30  2  0  0  0  0
 28 31  1  0  0  0  0
 29 32  2  0  0  0  0
 29 33  2  0  0  0  0
 29 34  1  0  0  0  0
 30 35  1  0  0  0  0
 31 36  2  0  0  0  0
 34 37  1  0  0  0  0
 35 38  2  0  0  0  0
 37 39  2  0  0  0  0
 37 40  1  0  0  0  0
 38 41  1  0  0  0  0
 39 42  1  0  0  0  0
 40 43  2  0  0  0  0
 42 44  2  0  0  0  0
  6  7  1  0  0  0  0
 17 18  1  0  0  0  0
 25 27  1  0  0  0  0
 36 38  1  0  0  0  0
 43 44  1  0  0  0  0
M  END
>  <MolRegNo>
252822

>  <m>
=

>  <Value>
1450

>  <Unit>
nM

>  <Type>
Ki

>  <pValue>
5.84

>  <Ligand Efficiency>
0.18

>  <Binding Efficiency>
9.18

>  <Surface Efficiency>
5.09

>  <Assay Index>
67398

>  <Assay Category>


>  <Assay Organism>


>  <Target ID>
19

>  <Target Name>
Estrogen receptor alpha

>  <Target Organism>
Homo sapiens

>  <Target Description>
Target is a single protein chain

>  <Sequence Accession>
P03372

>  <Reference>
J Med Chem 45 (25), 5492-5505 (2002)

>  <Pubmed ID>
12459017

>  <DOI>
10.1021/jm020291h

$$$$
253267
Actelion Java MolfileCreator 1.0

 34 37  0  0  0  0  0  0  0  0999 V2000
    0.0000   -0.0000   -0.0000 O   0  0  0  0  0  0  0  0  0  0  0  0
    1.2927   -0.7421   -0.0000 C   0  0  0  0  0  0  0  0  0  0  0  0
    1.2927   -2.2503   -0.0000 C   0  0  0  0  0  0  0  0  0  0  0  0
    2.5855    0.0239   -0.0000 C   0  0  0  0  0  0  0  0  0  0  0  0
    2.5855   -2.9805   -0.0000 C   0  0  0  0  0  0  0  0  0  0  0  0
    3.8782   -0.7182   -0.0000 C   0  0  0  0  0  0  0  0  0  0  0  0
    3.8662   -2.2264   -0.0000 C   0  0  0  0  0  0  0  0  0  0  0  0
    5.1590   -2.9685   -0.0000 C   0  0  0  0  0  0  0  0  0  0  0  0
    6.4517   -2.2024   -0.0000 C   0  0  0  0  0  0  0  0  0  0  0  0
    7.7444   -2.9446   -0.0000 N   0  0  0  0  0  0  0  0  0  0  0  0
    9.0371   -2.1785   -0.0000 C   0  0  0  0  0  0  0  0  0  0  0  0
    9.0252   -0.6583   -0.0000 N   0  0  0  0  0  0  0  0  0  0  0  0
   10.3299   -2.9206   -0.0000 N   0  0  0  0  0  0  0  0  0  0  0  0
   10.3179    0.1197   -0.0000 C   0  0  0  0  0  0  0  0  0  0  0  0
   11.6346   -2.1546   -0.0000 C   0  0  0  0  0  0  0  0  0  0  0  0
   11.6226   -0.6224   -0.0000 N   0  0  0  0  0  0  0  0  0  0  0  0
   10.3059    1.6399   -0.0000 N   0  0  0  0  0  0  0  0  0  0  0  0
   12.9273   -2.8847   -0.0000 N   0  0  0  0  0  0  0  0  0  0  0  0
   11.5987    2.3820   -0.0000 C   0  0  0  0  0  0  0  0  0  0  0  0
    8.9893    2.3820   -0.0000 C   0  0  0  0  0  0  0  0  0  0  0  0
   14.2200   -2.1186   -0.0000 C   0  0  0  0  0  0  0  0  0  0  0  0
   12.9273   -4.3809   -0.0000 C   0  0  0  0  0  0  0  0  0  0  0  0
   11.5867    3.9021   -0.0000 C   0  0  0  0  0  0  0  0  0  0  0  0
    8.9893    3.9021   -0.0000 C   0  0  0  0  0  0  0  0  0  0  0  0
   15.5128   -2.8368   -0.0000 C   0  0  0  0  0  0  0  0  0  0  0  0
   10.2700    4.6682   -0.0000 N   0  0  0  0  0  0  0  0  0  0  0  0
   16.8055   -2.0708   -0.0000 C   0  0  0  0  0  0  0  0  0  0  0  0
   18.1102   -2.7889   -0.0000 C   0  0  0  0  0  0  0  0  0  0  0  0
   19.3790   -2.0109   -0.0000 C   0  0  0  0  0  0  0  0  0  0  0  0
   18.1102   -4.2852   -0.0000 C   0  0  0  0  0  0  0  0  0  0  0  0
   20.6717   -2.7411   -0.0000 C   0  0  0  0  0  0  0  0  0  0  0  0
   19.4029   -5.0153   -0.0000 C   0  0  0  0  0  0  0  0  0  0  0  0
   20.6837   -4.2373   -0.0000 C   0  0  0  0  0  0  0  0  0  0  0  0
   21.9884   -4.9674   -0.0000 C   0  0  0  0  0  0  0  0  0  0  0  0
  1  2  1  0  0  0  0
  2  3  2  0  0  0  0
  2  4  1  0  0  0  0
  3  5  1  0  0  0  0
  4  6  2  0  0  0  0
  5  7  2  0  0  0  0
  7  8  1  0  0  0  0
  8  9  1  0  0  0  0
  9 10  1  0  0  0  0
 10 11  1  0  0  0  0
 11 12  2  0  0  0  0
 11 13  1  0  0  0  0
 12 14  1  0  0  0  0
 13 15  2  0  0  0  0
 14 16  2  0  0  0  0
 14 17  1  0  0  0  0
 15 18  1  0  0  0  0
 17 19  1  0  0  0  0
 17 20  1  0  0  0  0
 18 21  1  0  0  0  0
 18 22  1  0  0  0  0
 19 23  1  0  0  0  0
 20 24  1  0  0  0  0
 21 25  1  0  0  0  0
 23 26  1  0  0  0  0
 25 27  1  0  0  0  0
 27 28  1  0  0  0  0
 28 29  2  0  0  0  0
 28 30  1  0  0  0  0
 29 31  1  0  0  0  0
 30 32  2  0  0  0  0
 31 33  2  0  0  0  0
 33 34  1  0  0  0  0
  6  7  1  0  0  0  0
 15 16  1  0  0  0  0
 24 26  1  0  0  0  0
 32 33  1  0  0  0  0
M  END
>  <MolRegNo>
253267

>  <m>
=

>  <Value>
1140

>  <Unit>
nM

>  <Type>
Ki

>  <pValue>
5.94

>  <Ligand Efficiency>
0.24

>  <Binding Efficiency>
12.87

>  <Surface Efficiency>
6.64

>  <Assay Index>
67398

>  <Assay Category>


>  <Assay Organism>


>  <Target ID>
19

>  <Target Name>
Estrogen receptor alpha

>  <Target Organism>
Homo sapiens

>  <Target Description>
Target is a single protein chain

>  <Sequence Accession>
P03372

>  <Reference>
J Med Chem 45 (25), 5492-5505 (2002)

>  <Pubmed ID>
12459017

>  <DOI>
10.1021/jm020291h

$$$$
253491
Actelion Java MolfileCreator 1.0

 44 48  0  0  0  0  0  0  0  0999 V2000
    0.0000   -0.0000   -0.0000 Cl  0  0  0  0  0  0  0  0  0  0  0  0
   -1.3023    0.7340   -0.0000 C   0  0  0  0  0  0  0  0  0  0  0  0
   -1.3378    2.2376   -0.0000 C   0  0  0  0  0  0  0  0  0  0  0  0
   -2.6165   -0.0000   -0.0000 C   0  0  0  0  0  0  0  0  0  0  0  0
   -2.6520    2.9835   -0.0000 C   0  0  0  0  0  0  0  0  0  0  0  0
   -3.9188    0.7340   -0.0000 C   0  0  0  0  0  0  0  0  0  0  0  0
   -3.9306    2.2258   -0.0000 C   0  0  0  0  0  0  0  0  0  0  0  0
   -5.2448    2.9716   -0.0000 C   0  0  0  0  0  0  0  0  0  0  0  0
   -6.5234    2.2258   -0.0000 C   0  0  0  0  0  0  0  0  0  0  0  0
   -7.8376    2.9716   -0.0000 C   0  0  0  0  0  0  0  0  0  0  0  0
   -9.1399    2.2258   -0.0000 N   0  0  0  0  0  0  0  0  0  0  0  0
  -10.4422    2.9835   -0.0000 C   0  0  0  0  0  0  0  0  0  0  0  0
   -9.1280    0.7459   -0.0000 C   0  0  0  0  0  0  0  0  0  0  0  0
  -10.4540    4.4871   -0.0000 N   0  0  0  0  0  0  0  0  0  0  0  0
  -11.7445    2.2495   -0.0000 N   0  0  0  0  0  0  0  0  0  0  0  0
  -11.7563    5.2448   -0.0000 C   0  0  0  0  0  0  0  0  0  0  0  0
  -13.0468    3.0072   -0.0000 C   0  0  0  0  0  0  0  0  0  0  0  0
  -13.0587    4.5107   -0.0000 N   0  0  0  0  0  0  0  0  0  0  0  0
  -11.7682    6.7484   -0.0000 N   0  0  0  0  0  0  0  0  0  0  0  0
  -14.3610    2.2731   -0.0000 N   0  0  0  0  0  0  0  0  0  0  0  0
  -10.4895    7.5061   -0.0000 C   0  0  0  0  0  0  0  0  0  0  0  0
  -13.0587    7.5061   -0.0000 C   0  0  0  0  0  0  0  0  0  0  0  0
  -15.6633    3.0308   -0.0000 C   0  0  0  0  0  0  0  0  0  0  0  0
  -10.4895    8.9860   -0.0000 C   0  0  0  0  0  0  0  0  0  0  0  0
  -13.0705    9.0096   -0.0000 C   0  0  0  0  0  0  0  0  0  0  0  0
  -16.9656    2.2968   -0.0000 C   0  0  0  0  0  0  0  0  0  0  0  0
  -11.7919    9.7555   -0.0000 N   0  0  0  0  0  0  0  0  0  0  0  0
  -18.2679    3.0545   -0.0000 C   0  0  0  0  0  0  0  0  0  0  0  0
  -11.7919   11.2591   -0.0000 C   0  0  0  0  0  0  0  0  0  0  0  0
  -18.2797    4.5581   -0.0000 C   0  0  0  0  0  0  0  0  0  0  0  0
  -19.5702    2.3205   -0.0000 C   0  0  0  0  0  0  0  0  0  0  0  0
  -10.5132   12.0050   -0.0000 O   0  0  0  0  0  0  0  0  0  0  0  0
  -13.0942   12.0168   -0.0000 C   0  0  0  0  0  0  0  0  0  0  0  0
  -19.5821    5.3158   -0.0000 C   0  0  0  0  0  0  0  0  0  0  0  0
  -20.8725    3.0782   -0.0000 C   0  0  0  0  0  0  0  0  0  0  0  0
  -13.1060   13.5204   -0.0000 O   0  0  0  0  0  0  0  0  0  0  0  0
  -20.8844    4.5818   -0.0000 C   0  0  0  0  0  0  0  0  0  0  0  0
  -14.4083   14.2899   -0.0000 C   0  0  0  0  0  0  0  0  0  0  0  0
  -22.1867    5.3395   -0.0000 O   0  0  0  0  0  0  0  0  0  0  0  0
  -15.7106   13.5559   -0.0000 C   0  0  0  0  0  0  0  0  0  0  0  0
  -14.4083   15.7817   -0.0000 C   0  0  0  0  0  0  0  0  0  0  0  0
  -17.0129   14.3136   -0.0000 C   0  0  0  0  0  0  0  0  0  0  0  0
  -15.6988   16.5512   -0.0000 C   0  0  0  0  0  0  0  0  0  0  0  0
  -17.0129   15.8290   -0.0000 C   0  0  0  0  0  0  0  0  0  0  0  0
  1  2  1  0  0  0  0
  2  3  2  0  0  0  0
  2  4  1  0  0  0  0
  3  5  1  0  0  0  0
  4  6  2  0  0  0  0
  5  7  2  0  0  0  0
  7  8  1  0  0  0  0
  8  9  1  0  0  0  0
  9 10  1  0  0  0  0
 10 11  1  0  0  0  0
 11 12  1  0  0  0  0
 11 13  1  0  0  0  0
 12 14  2  0  0  0  0
 12 15  1  0  0  0  0
 14 16  1  0  0  0  0
 15 17  2  0  0  0  0
 16 18  2  0  0  0  0
 16 19  1  0  0  0  0
 17 20  1  0  0  0  0
 19 21  1  0  0  0  0
 19 22  1  0  0  0  0
 20 23  1  0  0  0  0
 21 24  1  0  0  0  0
 22 25  1  0  0  0  0
 23 26  1  0  0  0  0
 24 27  1  0  0  0  0
 26 28  1  0  0  0  0
 27 29  1  0  0  0  0
 28 30  2  0  0  0  0
 28 31  1  0  0  0  0
 29 32  2  0  0  0  0
 29 33  1  0  0  0  0
 30 34  1  0  0  0  0
 31 35  2  0  0  0  0
 33 36  1  0  0  0  0
 34 37  2  0  0  0  0
 36 38  1  0  0  0  0
 37 39  1  0  0  0  0
 38 40  2  0  0  0  0
 38 41  1  0  0  0  0
 40 42  1  0  0  0  0
 41 43  2  0  0  0  0
 42 44  2  0  0  0  0
  6  7  1  0  0  0  0
 17 18  1  0  0  0  0
 25 27  1  0  0  0  0
 35 37  1  0  0  0  0
 43 44  1  0  0  0  0
M  END
>  <MolRegNo>
253491

>  <m>
=

>  <Value>
570

>  <Unit>
nM

>  <Type>
Ki

>  <pValue>
6.24

>  <Ligand Efficiency>
0.19

>  <Binding Efficiency>
10.13

>  <Surface Efficiency>
5.84

>  <Assay Index>
67398

>  <Assay Category>


>  <Assay Organism>


>  <Target ID>
19

>  <Target Name>
Estrogen receptor alpha

>  <Target Organism>
Homo sapiens

>  <Target Description>
Target is a single protein chain

>  <Sequence Accession>
P03372

>  <Reference>
J Med Chem 45 (25), 5492-5505 (2002)

>  <Pubmed ID>
12459017

>  <DOI>
10.1021/jm020291h

$$$$
253162
Actelion Java MolfileCreator 1.0

 33 36  0  0  0  0  0  0  0  0999 V2000
    0.0000   -0.0000   -0.0000 O   0  0  0  0  0  0  0  0  0  0  0  0
   -1.3165    0.7591   -0.0000 C   0  0  0  0  0  0  0  0  0  0  0  0
    1.2809    0.7709   -0.0000 C   0  0  0  0  0  0  0  0  0  0  0  0
   -1.3284    2.2653   -0.0000 N   0  0  0  0  0  0  0  0  0  0  0  0
   -2.6330    0.0237   -0.0000 N   0  0  0  0  0  0  0  0  0  0  0  0
    2.5618    0.0474   -0.0000 C   0  0  0  0  0  0  0  0  0  0  0  0
   -2.6449    3.0244   -0.0000 C   0  0  0  0  0  0  0  0  0  0  0  0
   -3.9376    0.7828   -0.0000 C   0  0  0  0  0  0  0  0  0  0  0  0
    3.8428    0.8184   -0.0000 C   0  0  0  0  0  0  0  0  0  0  0  0
   -3.9495    2.2891   -0.0000 N   0  0  0  0  0  0  0  0  0  0  0  0
   -2.6567    4.5307   -0.0000 N   0  0  0  0  0  0  0  0  0  0  0  0
   -5.2423    0.0474   -0.0000 N   0  0  0  0  0  0  0  0  0  0  0  0
    5.1355    0.0949   -0.0000 C   0  0  0  0  0  0  0  0  0  0  0  0
   -1.3758    5.2779   -0.0000 C   0  0  0  0  0  0  0  0  0  0  0  0
   -3.9851    5.2660   -0.0000 C   0  0  0  0  0  0  0  0  0  0  0  0
   -6.5469    0.8065   -0.0000 C   0  0  0  0  0  0  0  0  0  0  0  0
    6.4046    0.8777   -0.0000 C   0  0  0  0  0  0  0  0  0  0  0  0
    5.1355   -1.3877   -0.0000 C   0  0  0  0  0  0  0  0  0  0  0  0
   -1.3877    6.7841   -0.0000 C   0  0  0  0  0  0  0  0  0  0  0  0
   -3.9732    6.7841   -0.0000 C   0  0  0  0  0  0  0  0  0  0  0  0
   -7.8634    0.0712   -0.0000 C   0  0  0  0  0  0  0  0  0  0  0  0
    7.6855    0.1423   -0.0000 C   0  0  0  0  0  0  0  0  0  0  0  0
    6.4165   -2.0993   -0.0000 C   0  0  0  0  0  0  0  0  0  0  0  0
   -2.6923    7.5432   -0.0000 N   0  0  0  0  0  0  0  0  0  0  0  0
   -9.1681    0.8302   -0.0000 C   0  0  0  0  0  0  0  0  0  0  0  0
    7.6974   -1.3521   -0.0000 C   0  0  0  0  0  0  0  0  0  0  0  0
   -2.7042    9.0495   -0.0000 C   0  0  0  0  0  0  0  0  0  0  0  0
   -9.1681    2.3365   -0.0000 C   0  0  0  0  0  0  0  0  0  0  0  0
  -10.4609    0.0949   -0.0000 C   0  0  0  0  0  0  0  0  0  0  0  0
  -10.4727    3.0956   -0.0000 C   0  0  0  0  0  0  0  0  0  0  0  0
  -11.7655    0.8539   -0.0000 C   0  0  0  0  0  0  0  0  0  0  0  0
  -11.7892    2.3602   -0.0000 C   0  0  0  0  0  0  0  0  0  0  0  0
  -13.0939    3.1193   -0.0000 O   0  0  0  0  0  0  0  0  0  0  0  0
  1  2  1  0  0  0  0
  1  3  1  0  0  0  0
  2  4  2  0  0  0  0
  2  5  1  0  0  0  0
  3  6  1  0  0  0  0
  4  7  1  0  0  0  0
  5  8  2  0  0  0  0
  6  9  1  0  0  0  0
  7 10  2  0  0  0  0
  7 11  1  0  0  0  0
  8 12  1  0  0  0  0
  9 13  1  0  0  0  0
 11 14  1  0  0  0  0
 11 15  1  0  0  0  0
 12 16  1  0  0  0  0
 13 17  2  0  0  0  0
 13 18  1  0  0  0  0
 14 19  1  0  0  0  0
 15 20  1  0  0  0  0
 16 21  1  0  0  0  0
 17 22  1  0  0  0  0
 18 23  2  0  0  0  0
 19 24  1  0  0  0  0
 21 25  1  0  0  0  0
 22 26  2  0  0  0  0
 24 27  1  0  0  0  0
 25 28  2  0  0  0  0
 25 29  1  0  0  0  0
 28 30  1  0  0  0  0
 29 31  2  0  0  0  0
 30 32  2  0  0  0  0
 32 33  1  0  0  0  0
  8 10  1  0  0  0  0
 20 24  1  0  0  0  0
 23 26  1  0  0  0  0
 31 32  1  0  0  0  0
M  END
>  <MolRegNo>
253162

>  <m>
=

>  <Value>
2400

>  <Unit>
nM

>  <Type>
Ki

>  <pValue>
5.62

>  <Ligand Efficiency>
0.23

>  <Binding Efficiency>
12.53

>  <Surface Efficiency>
6.49

>  <Assay Index>
67398

>  <Assay Category>


>  <Assay Organism>


>  <Target ID>
19

>  <Target Name>
Estrogen receptor alpha

>  <Target Organism>
Homo sapiens

>  <Target Description>
Target is a single protein chain

>  <Sequence Accession>
P03372

>  <Reference>
J Med Chem 45 (25), 5492-5505 (2002)

>  <Pubmed ID>
12459017

>  <DOI>
10.1021/jm020291h

$$$$
253537
Actelion Java MolfileCreator 1.0

 34 37  0  0  0  0  0  0  0  0999 V2000
    0.0000   -0.0000   -0.0000 Cl  0  0  0  0  0  0  0  0  0  0  0  0
   -1.3116    0.7326   -0.0000 C   0  0  0  0  0  0  0  0  0  0  0  0
   -2.6114   -0.0000   -0.0000 C   0  0  0  0  0  0  0  0  0  0  0  0
   -1.3471    2.2451   -0.0000 C   0  0  0  0  0  0  0  0  0  0  0  0
   -3.9112    0.7326   -0.0000 C   0  0  0  0  0  0  0  0  0  0  0  0
   -2.6468    3.0013   -0.0000 C   0  0  0  0  0  0  0  0  0  0  0  0
   -3.9348    2.2333   -0.0000 C   0  0  0  0  0  0  0  0  0  0  0  0
   -5.2464    2.9777   -0.0000 C   0  0  0  0  0  0  0  0  0  0  0  0
   -6.5462    2.2333   -0.0000 C   0  0  0  0  0  0  0  0  0  0  0  0
   -7.8460    2.9777   -0.0000 C   0  0  0  0  0  0  0  0  0  0  0  0
   -9.1458    2.2333   -0.0000 N   0  0  0  0  0  0  0  0  0  0  0  0
  -10.4574    2.9895   -0.0000 C   0  0  0  0  0  0  0  0  0  0  0  0
   -9.1458    0.7562   -0.0000 C   0  0  0  0  0  0  0  0  0  0  0  0
  -10.4692    4.4902   -0.0000 N   0  0  0  0  0  0  0  0  0  0  0  0
  -11.7690    2.2569   -0.0000 N   0  0  0  0  0  0  0  0  0  0  0  0
  -11.7808    5.2464   -0.0000 C   0  0  0  0  0  0  0  0  0  0  0  0
  -13.0688    3.0131   -0.0000 C   0  0  0  0  0  0  0  0  0  0  0  0
  -13.0806    4.5138   -0.0000 N   0  0  0  0  0  0  0  0  0  0  0  0
  -11.7926    6.7471   -0.0000 N   0  0  0  0  0  0  0  0  0  0  0  0
  -14.3686    2.2805   -0.0000 N   0  0  0  0  0  0  0  0  0  0  0  0
  -13.1161    7.4797   -0.0000 C   0  0  0  0  0  0  0  0  0  0  0  0
  -10.5165    7.4915   -0.0000 C   0  0  0  0  0  0  0  0  0  0  0  0
  -15.6684    3.0368   -0.0000 C   0  0  0  0  0  0  0  0  0  0  0  0
  -13.1042    8.9922   -0.0000 C   0  0  0  0  0  0  0  0  0  0  0  0
  -10.5283    8.9922   -0.0000 C   0  0  0  0  0  0  0  0  0  0  0  0
  -16.9800    2.3042   -0.0000 C   0  0  0  0  0  0  0  0  0  0  0  0
  -11.8281    9.7484   -0.0000 N   0  0  0  0  0  0  0  0  0  0  0  0
  -18.2798    3.0604   -0.0000 C   0  0  0  0  0  0  0  0  0  0  0  0
  -18.2798    4.5611   -0.0000 C   0  0  0  0  0  0  0  0  0  0  0  0
  -19.5677    2.3278   -0.0000 C   0  0  0  0  0  0  0  0  0  0  0  0
  -19.5796    5.3173   -0.0000 C   0  0  0  0  0  0  0  0  0  0  0  0
  -20.8675    3.0840   -0.0000 C   0  0  0  0  0  0  0  0  0  0  0  0
  -20.8912    4.5847   -0.0000 C   0  0  0  0  0  0  0  0  0  0  0  0
  -22.1909    5.3410   -0.0000 O   0  0  0  0  0  0  0  0  0  0  0  0
  1  2  1  0  0  0  0
  2  3  2  0  0  0  0
  2  4  1  0  0  0  0
  3  5  1  0  0  0  0
  4  6  2  0  0  0  0
  5  7  2  0  0  0  0
  7  8  1  0  0  0  0
  8  9  1  0  0  0  0
  9 10  1  0  0  0  0
 10 11  1  0  0  0  0
 11 12  1  0  0  0  0
 11 13  1  0  0  0  0
 12 14  2  0  0  0  0
 12 15  1  0  0  0  0
 14 16  1  0  0  0  0
 15 17  2  0  0  0  0
 16 18  2  0  0  0  0
 16 19  1  0  0  0  0
 17 20  1  0  0  0  0
 19 21  1  0  0  0  0
 19 22  1  0  0  0  0
 20 23  1  0  0  0  0
 21 24  1  0  0  0  0
 22 25  1  0  0  0  0
 23 26  1  0  0  0  0
 24 27  1  0  0  0  0
 26 28  1  0  0  0  0
 28 29  2  0  0  0  0
 28 30  1  0  0  0  0
 29 31  1  0  0  0  0
 30 32  2  0  0  0  0
 31 33  2  0  0  0  0
 33 34  1  0  0  0  0
  6  7  1  0  0  0  0
 17 18  1  0  0  0  0
 25 27  1  0  0  0  0
 32 33  1  0  0  0  0
M  END
>  <MolRegNo>
253537

>  <m>
=

>  <Value>
300

>  <Unit>
nM

>  <Type>
Ki

>  <pValue>
6.52

>  <Ligand Efficiency>
0.26

>  <Binding Efficiency>
13.53

>  <Surface Efficiency>
7.29

>  <Assay Index>
67398

>  <Assay Category>


>  <Assay Organism>


>  <Target ID>
19

>  <Target Name>
Estrogen receptor alpha

>  <Target Organism>
Homo sapiens

>  <Target Description>
Target is a single protein chain

>  <Sequence Accession>
P03372

>  <Reference>
J Med Chem 45 (25), 5492-5505 (2002)

>  <Pubmed ID>
12459017

>  <DOI>
10.1021/jm020291h

$$$$
253152
Actelion Java MolfileCreator 1.0

 35 38  0  0  0  0  0  0  0  0999 V2000
    0.0000   -0.0000   -0.0000 Cl  0  0  0  0  0  0  0  0  0  0  0  0
   -1.3118    0.7327   -0.0000 C   0  0  0  0  0  0  0  0  0  0  0  0
   -2.6118   -0.0000   -0.0000 C   0  0  0  0  0  0  0  0  0  0  0  0
   -1.3472    2.2454   -0.0000 C   0  0  0  0  0  0  0  0  0  0  0  0
   -3.9117    0.7327   -0.0000 C   0  0  0  0  0  0  0  0  0  0  0  0
   -2.6472    3.0018   -0.0000 C   0  0  0  0  0  0  0  0  0  0  0  0
   -3.9354    2.2336   -0.0000 C   0  0  0  0  0  0  0  0  0  0  0  0
   -5.2472    2.9781   -0.0000 C   0  0  0  0  0  0  0  0  0  0  0  0
   -6.5471    2.2336   -0.0000 C   0  0  0  0  0  0  0  0  0  0  0  0
   -7.8471    2.9781   -0.0000 C   0  0  0  0  0  0  0  0  0  0  0  0
   -9.1471    2.2336   -0.0000 N   0  0  0  0  0  0  0  0  0  0  0  0
  -10.4589    2.9899   -0.0000 C   0  0  0  0  0  0  0  0  0  0  0  0
   -9.1471    0.7563   -0.0000 C   0  0  0  0  0  0  0  0  0  0  0  0
  -10.4707    4.4908   -0.0000 N   0  0  0  0  0  0  0  0  0  0  0  0
  -11.7706    2.2572   -0.0000 N   0  0  0  0  0  0  0  0  0  0  0  0
  -10.4470    0.0236   -0.0000 C   0  0  0  0  0  0  0  0  0  0  0  0
  -11.7825    5.2472   -0.0000 C   0  0  0  0  0  0  0  0  0  0  0  0
  -13.0706    3.0136   -0.0000 C   0  0  0  0  0  0  0  0  0  0  0  0
  -13.0824    4.5144   -0.0000 N   0  0  0  0  0  0  0  0  0  0  0  0
  -11.7943    6.7480   -0.0000 N   0  0  0  0  0  0  0  0  0  0  0  0
  -14.3706    2.2809   -0.0000 N   0  0  0  0  0  0  0  0  0  0  0  0
  -13.1179    7.4807   -0.0000 C   0  0  0  0  0  0  0  0  0  0  0  0
  -10.5179    7.4926   -0.0000 C   0  0  0  0  0  0  0  0  0  0  0  0
  -15.6706    3.0372   -0.0000 C   0  0  0  0  0  0  0  0  0  0  0  0
  -13.1061    8.9934   -0.0000 C   0  0  0  0  0  0  0  0  0  0  0  0
  -10.5298    8.9934   -0.0000 C   0  0  0  0  0  0  0  0  0  0  0  0
  -16.9823    2.3045   -0.0000 C   0  0  0  0  0  0  0  0  0  0  0  0
  -11.8297    9.7498   -0.0000 N   0  0  0  0  0  0  0  0  0  0  0  0
  -18.2823    3.0608   -0.0000 C   0  0  0  0  0  0  0  0  0  0  0  0
  -18.2823    4.5617   -0.0000 C   0  0  0  0  0  0  0  0  0  0  0  0
  -19.5705    2.3281   -0.0000 C   0  0  0  0  0  0  0  0  0  0  0  0
  -19.5823    5.3181   -0.0000 C   0  0  0  0  0  0  0  0  0  0  0  0
  -20.8704    3.0845   -0.0000 C   0  0  0  0  0  0  0  0  0  0  0  0
  -20.8941    4.5854   -0.0000 C   0  0  0  0  0  0  0  0  0  0  0  0
  -22.1940    5.3417   -0.0000 O   0  0  0  0  0  0  0  0  0  0  0  0
  1  2  1  0  0  0  0
  2  3  2  0  0  0  0
  2  4  1  0  0  0  0
  3  5  1  0  0  0  0
  4  6  2  0  0  0  0
  5  7  2  0  0  0  0
  7  8  1  0  0  0  0
  8  9  1  0  0  0  0
  9 10  1  0  0  0  0
 10 11  1  0  0  0  0
 11 12  1  0  0  0  0
 11 13  1  0  0  0  0
 12 14  2  0  0  0  0
 12 15  1  0  0  0  0
 13 16  1  0  0  0  0
 14 17  1  0  0  0  0
 15 18  2  0  0  0  0
 17 19  2  0  0  0  0
 17 20  1  0  0  0  0
 18 21  1  0  0  0  0
 20 22  1  0  0  0  0
 20 23  1  0  0  0  0
 21 24  1  0  0  0  0
 22 25  1  0  0  0  0
 23 26  1  0  0  0  0
 24 27  1  0  0  0  0
 25 28  1  0  0  0  0
 27 29  1  0  0  0  0
 29 30  2  0  0  0  0
 29 31  1  0  0  0  0
 30 32  1  0  0  0  0
 31 33  2  0  0  0  0
 32 34  2  0  0  0  0
 34 35  1  0  0  0  0
  6  7  1  0  0  0  0
 18 19  1  0  0  0  0
 26 28  1  0  0  0  0
 33 34  1  0  0  0  0
M  END
>  <MolRegNo>
253152

>  <m>
=

>  <Value>
830

>  <Unit>
nM

>  <Type>
Ki

>  <pValue>
6.08

>  <Ligand Efficiency>
0.24

>  <Binding Efficiency>
12.26

>  <Surface Efficiency>
6.8

>  <Assay Index>
67398

>  <Assay Category>


>  <Assay Organism>


>  <Target ID>
19

>  <Target Name>
Estrogen receptor alpha

>  <Target Organism>
Homo sapiens

>  <Target Description>
Target is a single protein chain

>  <Sequence Accession>
P03372

>  <Reference>
J Med Chem 45 (25), 5492-5505 (2002)

>  <Pubmed ID>
12459017

>  <DOI>
10.1021/jm020291h

$$$$
252735
Actelion Java MolfileCreator 1.0

 34 37  0  0  0  0  0  0  0  0999 V2000
    0.0000   -0.0000   -0.0000 O   0  0  0  0  0  0  0  0  0  0  0  0
    1.2879   -0.7394   -0.0000 C   0  0  0  0  0  0  0  0  0  0  0  0
    2.5878    0.0239   -0.0000 C   0  0  0  0  0  0  0  0  0  0  0  0
    1.2879   -2.2300   -0.0000 C   0  0  0  0  0  0  0  0  0  0  0  0
    3.8757   -0.7155   -0.0000 C   0  0  0  0  0  0  0  0  0  0  0  0
    2.5758   -2.9694   -0.0000 C   0  0  0  0  0  0  0  0  0  0  0  0
    3.8518   -2.2062   -0.0000 C   0  0  0  0  0  0  0  0  0  0  0  0
    5.1398   -2.9455   -0.0000 C   0  0  0  0  0  0  0  0  0  0  0  0
    6.4396   -2.1823   -0.0000 C   0  0  0  0  0  0  0  0  0  0  0  0
    7.7275   -2.9217   -0.0000 N   0  0  0  0  0  0  0  0  0  0  0  0
    9.0155   -2.1585   -0.0000 C   0  0  0  0  0  0  0  0  0  0  0  0
    9.0035   -0.6440   -0.0000 N   0  0  0  0  0  0  0  0  0  0  0  0
   10.3034   -2.8978   -0.0000 N   0  0  0  0  0  0  0  0  0  0  0  0
   10.2914    0.1193   -0.0000 C   0  0  0  0  0  0  0  0  0  0  0  0
   11.6032   -2.1346   -0.0000 C   0  0  0  0  0  0  0  0  0  0  0  0
   11.5913   -0.6201   -0.0000 N   0  0  0  0  0  0  0  0  0  0  0  0
   10.2795    1.6338   -0.0000 N   0  0  0  0  0  0  0  0  0  0  0  0
   12.9031   -2.8740   -0.0000 N   0  0  0  0  0  0  0  0  0  0  0  0
   11.5674    2.3850   -0.0000 C   0  0  0  0  0  0  0  0  0  0  0  0
    8.9439    2.3731   -0.0000 C   0  0  0  0  0  0  0  0  0  0  0  0
   14.1194   -1.9915   -0.0000 C   0  0  0  0  0  0  0  0  0  0  0  0
   11.5555    3.8995   -0.0000 C   0  0  0  0  0  0  0  0  0  0  0  0
    8.9558    3.8995   -0.0000 C   0  0  0  0  0  0  0  0  0  0  0  0
   15.4789   -2.5997   -0.0000 C   0  0  0  0  0  0  0  0  0  0  0  0
   10.2437    4.6628   -0.0000 N   0  0  0  0  0  0  0  0  0  0  0  0
   16.6834   -1.7053   -0.0000 C   0  0  0  0  0  0  0  0  0  0  0  0
   10.2318    6.1773   -0.0000 C   0  0  0  0  0  0  0  0  0  0  0  0
   18.0548   -2.3254   -0.0000 C   0  0  0  0  0  0  0  0  0  0  0  0
   19.3427   -1.5503   -0.0000 C   0  0  0  0  0  0  0  0  0  0  0  0
   19.3188   -0.0477   -0.0000 C   0  0  0  0  0  0  0  0  0  0  0  0
   20.6306   -2.2896   -0.0000 C   0  0  0  0  0  0  0  0  0  0  0  0
   20.5948    0.7274   -0.0000 C   0  0  0  0  0  0  0  0  0  0  0  0
   21.9185   -1.5145   -0.0000 C   0  0  0  0  0  0  0  0  0  0  0  0
   21.8947   -0.0119   -0.0000 C   0  0  0  0  0  0  0  0  0  0  0  0
  1  2  1  0  0  0  0
  2  3  2  0  0  0  0
  2  4  1  0  0  0  0
  3  5  1  0  0  0  0
  4  6  2  0  0  0  0
  5  7  2  0  0  0  0
  7  8  1  0  0  0  0
  8  9  1  0  0  0  0
  9 10  1  0  0  0  0
 10 11  1  0  0  0  0
 11 12  2  0  0  0  0
 11 13  1  0  0  0  0
 12 14  1  0  0  0  0
 13 15  2  0  0  0  0
 14 16  2  0  0  0  0
 14 17  1  0  0  0  0
 15 18  1  0  0  0  0
 17 19  1  0  0  0  0
 17 20  1  0  0  0  0
 18 21  1  0  0  0  0
 19 22  1  0  0  0  0
 20 23  1  0  0  0  0
 21 24  1  0  0  0  0
 22 25  1  0  0  0  0
 24 26  1  0  0  0  0
 25 27  1  0  0  0  0
 26 28  1  0  0  0  0
 28 29  1  0  0  0  0
 29 30  2  0  0  0  0
 29 31  1  0  0  0  0
 30 32  1  0  0  0  0
 31 33  2  0  0  0  0
 32 34  2  0  0  0  0
  6  7  1  0  0  0  0
 15 16  1  0  0  0  0
 23 25  1  0  0  0  0
 33 34  1  0  0  0  0
M  END
>  <MolRegNo>
252735

>  <m>
=

>  <Value>
415

>  <Unit>
nM

>  <Type>
Ki

>  <pValue>
6.38

>  <Ligand Efficiency>
0.26

>  <Binding Efficiency>
13.83

>  <Surface Efficiency>
7.14

>  <Assay Index>
67398

>  <Assay Category>


>  <Assay Organism>


>  <Target ID>
19

>  <Target Name>
Estrogen receptor alpha

>  <Target Organism>
Homo sapiens

>  <Target Description>
Target is a single protein chain

>  <Sequence Accession>
P03372

>  <Reference>
J Med Chem 45 (25), 5492-5505 (2002)

>  <Pubmed ID>
12459017

>  <DOI>
10.1021/jm020291h

$$$$
1385143
Actelion Java MolfileCreator 1.0

 35 39  0  0  1  0  0  0  0  0999 V2000
    0.0000   -0.0000   -0.0000 Cl  0  0  0  0  0  0  0  0  0  0  0  0
   -1.3086    0.7443   -0.0000 C   0  0  0  0  0  0  0  0  0  0  0  0
   -1.3446    2.2450   -0.0000 C   0  0  0  0  0  0  0  0  0  0  0  0
   -2.6172   -0.0000   -0.0000 C   0  0  0  0  0  0  0  0  0  0  0  0
   -2.6532    2.9894   -0.0000 C   0  0  0  0  0  0  0  0  0  0  0  0
   -3.9138    0.7443   -0.0000 C   0  0  0  0  0  0  0  0  0  0  0  0
   -3.9258    2.2450   -0.0000 C   0  0  0  0  0  0  0  0  0  0  0  0
   -5.2464    2.9774   -0.0000 C   0  0  0  0  0  0  0  0  0  0  0  0
   -6.5310    2.2450   -0.0000 C   0  0  0  0  0  0  0  0  0  0  0  0
   -7.8396    2.9774   -0.0000 C   0  0  0  0  0  0  0  0  0  0  0  0
   -9.1362    2.2450   -0.0000 N   0  0  0  0  0  0  0  0  0  0  0  0
  -10.4328    2.9894   -0.0000 C   0  0  0  0  0  0  0  0  0  0  0  0
   -9.1242    0.7684   -0.0000 C   0  0  0  0  0  0  0  0  0  0  0  0
  -10.4448    4.5021   -0.0000 N   0  0  0  0  0  0  0  0  0  0  0  0
  -11.7414    2.2570   -0.0000 N   0  0  0  0  0  0  0  0  0  0  0  0
  -11.7534    5.2584   -0.0000 C   0  0  0  0  0  0  0  0  0  0  0  0
  -13.0380    3.0134   -0.0000 C   0  0  0  0  0  0  0  0  0  0  0  0
  -13.0500    4.5141   -0.0000 N   0  0  0  0  0  0  0  0  0  0  0  0
  -11.7534    6.7591   -0.0000 N   0  0  0  0  0  0  0  0  0  0  0  0
  -14.3466    2.2811   -0.0000 N   0  0  0  0  0  0  0  0  0  0  0  0
  -10.4688    7.5035   -0.0000 C   0  0  0  0  0  0  0  0  0  0  0  0
  -13.0500    7.5035   -0.0000 C   0  0  0  0  0  0  0  0  0  0  0  0
  -15.6432    3.0374   -0.0000 C   0  0  0  0  0  0  0  0  0  0  0  0
  -10.4808    8.9922   -0.0000 C   0  0  0  0  0  0  0  0  0  0  0  0
  -12.0055    7.9597   -0.0000 C   0  0  0  0  0  0  0  0  0  0  0  0
  -13.0620    9.0042   -0.0000 C   0  0  0  0  0  0  0  0  0  0  0  0
  -16.9398    2.3051   -0.0000 C   0  0  0  0  0  0  0  0  0  0  0  0
  -11.7774    9.7605   -0.0000 N   0  0  0  0  0  0  0  0  0  0  0  0
  -18.2364    3.0614   -0.0000 C   0  0  0  0  0  0  0  0  0  0  0  0
  -18.2484    4.5741   -0.0000 C   0  0  0  0  0  0  0  0  0  0  0  0
  -19.5330    2.3411   -0.0000 C   0  0  0  0  0  0  0  0  0  0  0  0
  -19.5450    5.3305   -0.0000 C   0  0  0  0  0  0  0  0  0  0  0  0
  -20.8296    3.0854   -0.0000 C   0  0  0  0  0  0  0  0  0  0  0  0
  -20.8416    4.5981   -0.0000 C   0  0  0  0  0  0  0  0  0  0  0  0
  -22.1382    5.3545   -0.0000 O   0  0  0  0  0  0  0  0  0  0  0  0
  1  2  1  0  0  0  0
  2  3  2  0  0  0  0
  2  4  1  0  0  0  0
  3  5  1  0  0  0  0
  4  6  2  0  0  0  0
  5  7  2  0  0  0  0
  7  8  1  0  0  0  0
  8  9  1  0  0  0  0
  9 10  1  0  0  0  0
 10 11  1  0  0  0  0
 11 12  1  0  0  0  0
 11 13  1  0  0  0  0
 12 14  2  0  0  0  0
 12 15  1  0  0  0  0
 14 16  1  0  0  0  0
 15 17  2  0  0  0  0
 16 18  2  0  0  0  0
 16 19  1  0  0  0  0
 17 20  1  0  0  0  0
 21 19  1  1  0  0  0
 19 22  1  0  0  0  0
 20 23  1  0  0  0  0
 21 24  1  0  0  0  0
 21 25  1  0  0  0  0
 22 26  1  0  0  0  0
 23 27  1  0  0  0  0
 24 28  1  0  0  0  0
 27 29  1  0  0  0  0
 29 30  2  0  0  0  0
 29 31  1  0  0  0  0
 30 32  1  0  0  0  0
 31 33  2  0  0  0  0
 32 34  2  0  0  0  0
 34 35  1  0  0  0  0
  6  7  1  0  0  0  0
 17 18  1  0  0  0  0
 25 26  1  0  0  0  0
 26 28  1  1  0  0  0
 33 34  1  0  0  0  0
M  END
>  <MolRegNo>
1385143

>  <m>
=

>  <Value>
2275

>  <Unit>
nM

>  <Type>
Ki

>  <pValue>
5.64

>  <Ligand Efficiency>
0.22

>  <Binding Efficiency>
11.42

>  <Surface Efficiency>
6.31

>  <Assay Index>
67398

>  <Assay Category>


>  <Assay Organism>


>  <Target ID>
19

>  <Target Name>
Estrogen receptor alpha

>  <Target Organism>
Homo sapiens

>  <Target Description>
Target is a single protein chain

>  <Sequence Accession>
P03372

>  <Reference>
J Med Chem 45 (25), 5492-5505 (2002)

>  <Pubmed ID>
12459017

>  <DOI>
10.1021/jm020291h

$$$$
253528
Actelion Java MolfileCreator 1.0

 44 48  0  0  0  0  0  0  0  0999 V2000
    0.0000   -0.0000   -0.0000 Cl  0  0  0  0  0  0  0  0  0  0  0  0
   -1.3021    0.7458   -0.0000 C   0  0  0  0  0  0  0  0  0  0  0  0
   -1.3376    2.2610   -0.0000 C   0  0  0  0  0  0  0  0  0  0  0  0
   -2.6161   -0.0000   -0.0000 C   0  0  0  0  0  0  0  0  0  0  0  0
   -2.6516    2.9949   -0.0000 C   0  0  0  0  0  0  0  0  0  0  0  0
   -3.9182    0.7458   -0.0000 C   0  0  0  0  0  0  0  0  0  0  0  0
   -3.9301    2.2491   -0.0000 C   0  0  0  0  0  0  0  0  0  0  0  0
   -5.2440    2.9949   -0.0000 C   0  0  0  0  0  0  0  0  0  0  0  0
   -6.5225    2.2491   -0.0000 C   0  0  0  0  0  0  0  0  0  0  0  0
   -7.8365    2.9949   -0.0000 C   0  0  0  0  0  0  0  0  0  0  0  0
   -9.1386    2.2491   -0.0000 N   0  0  0  0  0  0  0  0  0  0  0  0
  -10.4407    2.9949   -0.0000 C   0  0  0  0  0  0  0  0  0  0  0  0
   -9.1268    0.7694   -0.0000 C   0  0  0  0  0  0  0  0  0  0  0  0
  -10.4526    4.4983   -0.0000 N   0  0  0  0  0  0  0  0  0  0  0  0
  -11.7429    2.2610   -0.0000 N   0  0  0  0  0  0  0  0  0  0  0  0
  -11.7547    5.2440   -0.0000 C   0  0  0  0  0  0  0  0  0  0  0  0
  -13.0450    3.0186   -0.0000 C   0  0  0  0  0  0  0  0  0  0  0  0
  -13.0568    4.5219   -0.0000 N   0  0  0  0  0  0  0  0  0  0  0  0
  -11.7665    6.7474   -0.0000 N   0  0  0  0  0  0  0  0  0  0  0  0
  -14.3590    2.2846   -0.0000 N   0  0  0  0  0  0  0  0  0  0  0  0
  -10.4881    7.5050   -0.0000 C   0  0  0  0  0  0  0  0  0  0  0  0
  -13.0568    7.5050   -0.0000 C   0  0  0  0  0  0  0  0  0  0  0  0
  -15.6611    3.0423   -0.0000 C   0  0  0  0  0  0  0  0  0  0  0  0
  -10.4881    8.9847   -0.0000 C   0  0  0  0  0  0  0  0  0  0  0  0
  -13.0687    9.0084   -0.0000 C   0  0  0  0  0  0  0  0  0  0  0  0
  -16.9632    2.3083   -0.0000 C   0  0  0  0  0  0  0  0  0  0  0  0
  -11.7902    9.7542   -0.0000 N   0  0  0  0  0  0  0  0  0  0  0  0
  -18.2654    3.0659   -0.0000 C   0  0  0  0  0  0  0  0  0  0  0  0
  -11.7902   11.2575   -0.0000 C   0  0  0  0  0  0  0  0  0  0  0  0
  -18.2772    4.5693   -0.0000 C   0  0  0  0  0  0  0  0  0  0  0  0
  -19.5675    2.3438   -0.0000 C   0  0  0  0  0  0  0  0  0  0  0  0
  -10.5118   12.0033   -0.0000 O   0  0  0  0  0  0  0  0  0  0  0  0
  -13.0923   12.0151   -0.0000 C   0  0  0  0  0  0  0  0  0  0  0  0
  -19.5793    5.3269   -0.0000 C   0  0  0  0  0  0  0  0  0  0  0  0
  -20.8696    3.0896   -0.0000 C   0  0  0  0  0  0  0  0  0  0  0  0
  -14.3945   11.2812   -0.0000 C   0  0  0  0  0  0  0  0  0  0  0  0
  -13.0923   13.5185   -0.0000 C   0  0  0  0  0  0  0  0  0  0  0  0
  -20.8815    4.5930   -0.0000 C   0  0  0  0  0  0  0  0  0  0  0  0
  -15.6966   12.0388   -0.0000 C   0  0  0  0  0  0  0  0  0  0  0  0
  -14.3945   14.2761   -0.0000 C   0  0  0  0  0  0  0  0  0  0  0  0
  -22.1836    5.3506   -0.0000 O   0  0  0  0  0  0  0  0  0  0  0  0
  -15.7084   13.5422   -0.0000 C   0  0  0  0  0  0  0  0  0  0  0  0
  -17.0106   14.3116   -0.0000 O   0  0  0  0  0  0  0  0  0  0  0  0
  -17.0224   15.8150   -0.0000 C   0  0  0  0  0  0  0  0  0  0  0  0
  1  2  1  0  0  0  0
  2  3  2  0  0  0  0
  2  4  1  0  0  0  0
  3  5  1  0  0  0  0
  4  6  2  0  0  0  0
  5  7  2  0  0  0  0
  7  8  1  0  0  0  0
  8  9  1  0  0  0  0
  9 10  1  0  0  0  0
 10 11  1  0  0  0  0
 11 12  1  0  0  0  0
 11 13  1  0  0  0  0
 12 14  2  0  0  0  0
 12 15  1  0  0  0  0
 14 16  1  0  0  0  0
 15 17  2  0  0  0  0
 16 18  2  0  0  0  0
 16 19  1  0  0  0  0
 17 20  1  0  0  0  0
 19 21  1  0  0  0  0
 19 22  1  0  0  0  0
 20 23  1  0  0  0  0
 21 24  1  0  0  0  0
 22 25  1  0  0  0  0
 23 26  1  0  0  0  0
 24 27  1  0  0  0  0
 26 28  1  0  0  0  0
 27 29  1  0  0  0  0
 28 30  2  0  0  0  0
 28 31  1  0  0  0  0
 29 32  2  0  0  0  0
 29 33  1  0  0  0  0
 30 34  1  0  0  0  0
 31 35  2  0  0  0  0
 33 36  2  0  0  0  0
 33 37  1  0  0  0  0
 34 38  2  0  0  0  0
 36 39  1  0  0  0  0
 37 40  2  0  0  0  0
 38 41  1  0  0  0  0
 39 42  2  0  0  0  0
 42 43  1  0  0  0  0
 43 44  1  0  0  0  0
  6  7  1  0  0  0  0
 17 18  1  0  0  0  0
 25 27  1  0  0  0  0
 35 38  1  0  0  0  0
 40 42  1  0  0  0  0
M  END
>  <MolRegNo>
253528

>  <m>
=

>  <Value>
1130

>  <Unit>
nM

>  <Type>
Ki

>  <pValue>
5.95

>  <Ligand Efficiency>
0.18

>  <Binding Efficiency>
9.65

>  <Surface Efficiency>
5.56

>  <Assay Index>
67398

>  <Assay Category>


>  <Assay Organism>


>  <Target ID>
19

>  <Target Name>
Estrogen receptor alpha

>  <Target Organism>
Homo sapiens

>  <Target Description>
Target is a single protein chain

>  <Sequence Accession>
P03372

>  <Reference>
J Med Chem 45 (25), 5492-5505 (2002)

>  <Pubmed ID>
12459017

>  <DOI>
10.1021/jm020291h

$$$$
252699
Actelion Java MolfileCreator 1.0

 40 43  0  0  0  0  0  0  0  0999 V2000
    0.0000   -0.0000   -0.0000 Cl  0  0  0  0  0  0  0  0  0  0  0  0
   -1.3035    0.7465   -0.0000 C   0  0  0  0  0  0  0  0  0  0  0  0
   -1.3390    2.2633   -0.0000 C   0  0  0  0  0  0  0  0  0  0  0  0
   -2.6188   -0.0000   -0.0000 C   0  0  0  0  0  0  0  0  0  0  0  0
   -2.6544    2.9980   -0.0000 C   0  0  0  0  0  0  0  0  0  0  0  0
   -3.9223    0.7465   -0.0000 C   0  0  0  0  0  0  0  0  0  0  0  0
   -3.9342    2.2515   -0.0000 C   0  0  0  0  0  0  0  0  0  0  0  0
   -5.2495    2.9980   -0.0000 C   0  0  0  0  0  0  0  0  0  0  0  0
   -6.5293    2.2515   -0.0000 C   0  0  0  0  0  0  0  0  0  0  0  0
   -7.8447    2.9980   -0.0000 C   0  0  0  0  0  0  0  0  0  0  0  0
   -9.1482    2.2515   -0.0000 N   0  0  0  0  0  0  0  0  0  0  0  0
  -10.4517    2.9980   -0.0000 C   0  0  0  0  0  0  0  0  0  0  0  0
   -9.1363    0.7702   -0.0000 C   0  0  0  0  0  0  0  0  0  0  0  0
  -10.4635    4.5030   -0.0000 N   0  0  0  0  0  0  0  0  0  0  0  0
  -11.7552    2.2633   -0.0000 N   0  0  0  0  0  0  0  0  0  0  0  0
  -11.7670    5.2614   -0.0000 C   0  0  0  0  0  0  0  0  0  0  0  0
  -13.0587    3.0217   -0.0000 C   0  0  0  0  0  0  0  0  0  0  0  0
  -13.0705    4.5267   -0.0000 N   0  0  0  0  0  0  0  0  0  0  0  0
  -11.7670    6.7663   -0.0000 N   0  0  0  0  0  0  0  0  0  0  0  0
  -14.3740    2.2870   -0.0000 N   0  0  0  0  0  0  0  0  0  0  0  0
  -13.0705    7.5129   -0.0000 C   0  0  0  0  0  0  0  0  0  0  0  0
  -10.4754    7.5129   -0.0000 C   0  0  0  0  0  0  0  0  0  0  0  0
  -15.6775    3.0454   -0.0000 C   0  0  0  0  0  0  0  0  0  0  0  0
  -13.0824    9.0178   -0.0000 C   0  0  0  0  0  0  0  0  0  0  0  0
  -10.4872    9.0178   -0.0000 C   0  0  0  0  0  0  0  0  0  0  0  0
  -16.9810    2.3107   -0.0000 C   0  0  0  0  0  0  0  0  0  0  0  0
  -11.7907    9.7762   -0.0000 N   0  0  0  0  0  0  0  0  0  0  0  0
  -18.2845    3.0691   -0.0000 C   0  0  0  0  0  0  0  0  0  0  0  0
  -11.7907   11.2812   -0.0000 C   0  0  0  0  0  0  0  0  0  0  0  0
  -18.2963    4.5741   -0.0000 C   0  0  0  0  0  0  0  0  0  0  0  0
  -19.5880    2.3463   -0.0000 C   0  0  0  0  0  0  0  0  0  0  0  0
  -10.5109   12.0396   -0.0000 C   0  0  0  0  0  0  0  0  0  0  0  0
  -19.5998    5.3325   -0.0000 C   0  0  0  0  0  0  0  0  0  0  0  0
  -20.8915    3.0928   -0.0000 C   0  0  0  0  0  0  0  0  0  0  0  0
   -9.2311   11.2930   -0.0000 C   0  0  0  0  0  0  0  0  0  0  0  0
  -20.9033    4.5978   -0.0000 C   0  0  0  0  0  0  0  0  0  0  0  0
   -7.9395   12.0396   -0.0000 O   0  0  0  0  0  0  0  0  0  0  0  0
   -9.2430    9.8118   -0.0000 C   0  0  0  0  0  0  0  0  0  0  0  0
  -22.2068    5.3562   -0.0000 O   0  0  0  0  0  0  0  0  0  0  0  0
   -7.8210    9.4563   -0.0000 C   0  0  0  0  0  0  0  0  0  0  0  0
  1  2  1  0  0  0  0
  2  3  2  0  0  0  0
  2  4  1  0  0  0  0
  3  5  1  0  0  0  0
  4  6  2  0  0  0  0
  5  7  2  0  0  0  0
  7  8  1  0  0  0  0
  8  9  1  0  0  0  0
  9 10  1  0  0  0  0
 10 11  1  0  0  0  0
 11 12  1  0  0  0  0
 11 13  1  0  0  0  0
 12 14  2  0  0  0  0
 12 15  1  0  0  0  0
 14 16  1  0  0  0  0
 15 17  2  0  0  0  0
 16 18  2  0  0  0  0
 16 19  1  0  0  0  0
 17 20  1  0  0  0  0
 19 21  1  0  0  0  0
 19 22  1  0  0  0  0
 20 23  1  0  0  0  0
 21 24  1  0  0  0  0
 22 25  1  0  0  0  0
 23 26  1  0  0  0  0
 24 27  1  0  0  0  0
 26 28  1  0  0  0  0
 27 29  1  0  0  0  0
 28 30  2  0  0  0  0
 28 31  1  0  0  0  0
 29 32  1  0  0  0  0
 30 33  1  0  0  0  0
 31 34  2  0  0  0  0
 32 35  1  0  0  0  0
 33 36  2  0  0  0  0
 35 37  2  0  0  0  0
 35 38  1  0  0  0  0
 36 39  1  0  0  0  0
 38 40  1  0  0  0  0
  6  7  1  0  0  0  0
 17 18  1  0  0  0  0
 25 27  1  0  0  0  0
 34 36  1  0  0  0  0
M  END
>  <MolRegNo>
252699

>  <m>
=

>  <Value>
250

>  <Unit>
nM

>  <Type>
Ki

>  <pValue>
6.6

>  <Ligand Efficiency>
0.23

>  <Binding Efficiency>
11.66

>  <Surface Efficiency>
6.76

>  <Assay Index>
67398

>  <Assay Category>


>  <Assay Organism>


>  <Target ID>
19

>  <Target Name>
Estrogen receptor alpha

>  <Target Organism>
Homo sapiens

>  <Target Description>
Target is a single protein chain

>  <Sequence Accession>
P03372

>  <Reference>
J Med Chem 45 (25), 5492-5505 (2002)

>  <Pubmed ID>
12459017

>  <DOI>
10.1021/jm020291h

$$$$
253239
Actelion Java MolfileCreator 1.0

 35 38  0  0  0  0  0  0  0  0999 V2000
    0.0000   -0.0000   -0.0000 Cl  0  0  0  0  0  0  0  0  0  0  0  0
    0.0119   -1.4832   -0.0000 C   0  0  0  0  0  0  0  0  0  0  0  0
   -1.2696   -2.2308   -0.0000 C   0  0  0  0  0  0  0  0  0  0  0  0
    1.3052   -2.2070   -0.0000 C   0  0  0  0  0  0  0  0  0  0  0  0
   -1.2815   -3.7140   -0.0000 C   0  0  0  0  0  0  0  0  0  0  0  0
   -2.5867   -1.4951   -0.0000 C   0  0  0  0  0  0  0  0  0  0  0  0
    1.3171   -3.6903   -0.0000 C   0  0  0  0  0  0  0  0  0  0  0  0
    0.0119   -4.4378   -0.0000 C   0  0  0  0  0  0  0  0  0  0  0  0
   -3.8682   -2.2308   -0.0000 C   0  0  0  0  0  0  0  0  0  0  0  0
    2.5986   -4.4141   -0.0000 Cl  0  0  0  0  0  0  0  0  0  0  0  0
   -5.1853   -1.4951   -0.0000 C   0  0  0  0  0  0  0  0  0  0  0  0
   -6.4906   -2.2308   -0.0000 N   0  0  0  0  0  0  0  0  0  0  0  0
   -7.7958   -1.4832   -0.0000 C   0  0  0  0  0  0  0  0  0  0  0  0
   -6.4787   -3.7140   -0.0000 C   0  0  0  0  0  0  0  0  0  0  0  0
   -7.8077    0.0356   -0.0000 N   0  0  0  0  0  0  0  0  0  0  0  0
   -9.1011   -2.2189   -0.0000 N   0  0  0  0  0  0  0  0  0  0  0  0
   -9.1129    0.7950   -0.0000 C   0  0  0  0  0  0  0  0  0  0  0  0
  -10.4063   -1.4595   -0.0000 C   0  0  0  0  0  0  0  0  0  0  0  0
  -10.4182    0.0475   -0.0000 N   0  0  0  0  0  0  0  0  0  0  0  0
   -9.1367    2.3020   -0.0000 N   0  0  0  0  0  0  0  0  0  0  0  0
  -11.7234   -2.1952   -0.0000 N   0  0  0  0  0  0  0  0  0  0  0  0
   -7.8433    3.0376   -0.0000 C   0  0  0  0  0  0  0  0  0  0  0  0
  -10.4419    3.0376   -0.0000 C   0  0  0  0  0  0  0  0  0  0  0  0
  -13.0286   -1.4358   -0.0000 C   0  0  0  0  0  0  0  0  0  0  0  0
   -7.8552    4.5446   -0.0000 C   0  0  0  0  0  0  0  0  0  0  0  0
  -10.4538    4.5446   -0.0000 C   0  0  0  0  0  0  0  0  0  0  0  0
  -14.3339   -2.1714   -0.0000 C   0  0  0  0  0  0  0  0  0  0  0  0
   -9.1723    5.3040   -0.0000 N   0  0  0  0  0  0  0  0  0  0  0  0
  -15.6391   -1.4120   -0.0000 C   0  0  0  0  0  0  0  0  0  0  0  0
  -15.6510    0.1068   -0.0000 C   0  0  0  0  0  0  0  0  0  0  0  0
  -16.9443   -2.1358   -0.0000 C   0  0  0  0  0  0  0  0  0  0  0  0
  -16.9562    0.8662   -0.0000 C   0  0  0  0  0  0  0  0  0  0  0  0
  -18.2496   -1.3883   -0.0000 C   0  0  0  0  0  0  0  0  0  0  0  0
  -18.2614    0.1305   -0.0000 C   0  0  0  0  0  0  0  0  0  0  0  0
  -19.5667    0.8899   -0.0000 O   0  0  0  0  0  0  0  0  0  0  0  0
  1  2  1  0  0  0  0
  2  3  2  0  0  0  0
  2  4  1  0  0  0  0
  3  5  1  0  0  0  0
  3  6  1  0  0  0  0
  4  7  2  0  0  0  0
  5  8  2  0  0  0  0
  6  9  1  0  0  0  0
  7 10  1  0  0  0  0
  9 11  1  0  0  0  0
 11 12  1  0  0  0  0
 12 13  1  0  0  0  0
 12 14  1  0  0  0  0
 13 15  2  0  0  0  0
 13 16  1  0  0  0  0
 15 17  1  0  0  0  0
 16 18  2  0  0  0  0
 17 19  2  0  0  0  0
 17 20  1  0  0  0  0
 18 21  1  0  0  0  0
 20 22  1  0  0  0  0
 20 23  1  0  0  0  0
 21 24  1  0  0  0  0
 22 25  1  0  0  0  0
 23 26  1  0  0  0  0
 24 27  1  0  0  0  0
 25 28  1  0  0  0  0
 27 29  1  0  0  0  0
 29 30  2  0  0  0  0
 29 31  1  0  0  0  0
 30 32  1  0  0  0  0
 31 33  2  0  0  0  0
 32 34  2  0  0  0  0
 34 35  1  0  0  0  0
  7  8  1  0  0  0  0
 18 19  1  0  0  0  0
 26 28  1  0  0  0  0
 33 34  1  0  0  0  0
M  END
>  <MolRegNo>
253239

>  <m>
=

>  <Value>
125

>  <Unit>
nM

>  <Type>
Ki

>  <pValue>
6.9

>  <Ligand Efficiency>
0.27

>  <Binding Efficiency>
13.37

>  <Surface Efficiency>
7.72

>  <Assay Index>
67398

>  <Assay Category>


>  <Assay Organism>


>  <Target ID>
19

>  <Target Name>
Estrogen receptor alpha

>  <Target Organism>
Homo sapiens

>  <Target Description>
Target is a single protein chain

>  <Sequence Accession>
P03372

>  <Reference>
J Med Chem 45 (25), 5492-5505 (2002)

>  <Pubmed ID>
12459017

>  <DOI>
10.1021/jm020291h

$$$$
253206
Actelion Java MolfileCreator 1.0

 33 36  0  0  0  0  0  0  0  0999 V2000
    0.0000   -0.0000   -0.0000 O   0  0  0  0  0  0  0  0  0  0  0  0
    1.2914   -0.7413   -0.0000 C   0  0  0  0  0  0  0  0  0  0  0  0
    2.5827    0.0239   -0.0000 C   0  0  0  0  0  0  0  0  0  0  0  0
    1.2794   -2.2479   -0.0000 C   0  0  0  0  0  0  0  0  0  0  0  0
    3.8741   -0.7174   -0.0000 C   0  0  0  0  0  0  0  0  0  0  0  0
    2.5708   -2.9773   -0.0000 C   0  0  0  0  0  0  0  0  0  0  0  0
    3.8621   -2.2240   -0.0000 C   0  0  0  0  0  0  0  0  0  0  0  0
    5.1535   -2.9653   -0.0000 C   0  0  0  0  0  0  0  0  0  0  0  0
    6.4449   -2.2001   -0.0000 C   0  0  0  0  0  0  0  0  0  0  0  0
    7.7362   -2.9414   -0.0000 N   0  0  0  0  0  0  0  0  0  0  0  0
    9.0395   -2.1762   -0.0000 C   0  0  0  0  0  0  0  0  0  0  0  0
    9.0276   -0.6576   -0.0000 N   0  0  0  0  0  0  0  0  0  0  0  0
   10.3309   -2.9175   -0.0000 N   0  0  0  0  0  0  0  0  0  0  0  0
   10.3189    0.1196   -0.0000 C   0  0  0  0  0  0  0  0  0  0  0  0
   11.6223   -2.1523   -0.0000 C   0  0  0  0  0  0  0  0  0  0  0  0
   11.6103   -0.6218   -0.0000 N   0  0  0  0  0  0  0  0  0  0  0  0
   10.2950    1.6381   -0.0000 N   0  0  0  0  0  0  0  0  0  0  0  0
   12.9136   -2.8816   -0.0000 N   0  0  0  0  0  0  0  0  0  0  0  0
   11.5983    2.3795   -0.0000 C   0  0  0  0  0  0  0  0  0  0  0  0
    8.9797    2.3795   -0.0000 C   0  0  0  0  0  0  0  0  0  0  0  0
   14.2050   -2.1164   -0.0000 C   0  0  0  0  0  0  0  0  0  0  0  0
   12.9256   -4.3763   -0.0000 C   0  0  0  0  0  0  0  0  0  0  0  0
   11.5864    3.8980   -0.0000 C   0  0  0  0  0  0  0  0  0  0  0  0
    8.9678    3.8980   -0.0000 C   0  0  0  0  0  0  0  0  0  0  0  0
   15.5083   -2.8338   -0.0000 C   0  0  0  0  0  0  0  0  0  0  0  0
   10.2591    4.6632   -0.0000 N   0  0  0  0  0  0  0  0  0  0  0  0
   16.7757   -2.0686   -0.0000 C   0  0  0  0  0  0  0  0  0  0  0  0
   18.0791   -2.7860   -0.0000 C   0  0  0  0  0  0  0  0  0  0  0  0
   18.0671   -4.2806   -0.0000 C   0  0  0  0  0  0  0  0  0  0  0  0
   19.3465   -2.0088   -0.0000 C   0  0  0  0  0  0  0  0  0  0  0  0
   19.3704   -5.0100   -0.0000 C   0  0  0  0  0  0  0  0  0  0  0  0
   20.6498   -2.7382   -0.0000 C   0  0  0  0  0  0  0  0  0  0  0  0
   20.6618   -4.2328   -0.0000 C   0  0  0  0  0  0  0  0  0  0  0  0
  1  2  1  0  0  0  0
  2  3  2  0  0  0  0
  2  4  1  0  0  0  0
  3  5  1  0  0  0  0
  4  6  2  0  0  0  0
  5  7  2  0  0  0  0
  7  8  1  0  0  0  0
  8  9  1  0  0  0  0
  9 10  1  0  0  0  0
 10 11  1  0  0  0  0
 11 12  2  0  0  0  0
 11 13  1  0  0  0  0
 12 14  1  0  0  0  0
 13 15  2  0  0  0  0
 14 16  2  0  0  0  0
 14 17  1  0  0  0  0
 15 18  1  0  0  0  0
 17 19  1  0  0  0  0
 17 20  1  0  0  0  0
 18 21  1  0  0  0  0
 18 22  1  0  0  0  0
 19 23  1  0  0  0  0
 20 24  1  0  0  0  0
 21 25  1  0  0  0  0
 23 26  1  0  0  0  0
 25 27  1  0  0  0  0
 27 28  1  0  0  0  0
 28 29  1  0  0  0  0
 28 30  1  0  0  0  0
 29 31  1  0  0  0  0
 30 32  1  0  0  0  0
 31 33  1  0  0  0  0
  6  7  1  0  0  0  0
 15 16  1  0  0  0  0
 24 26  1  0  0  0  0
 32 33  1  0  0  0  0
M  END
>  <MolRegNo>
253206

>  <m>
=

>  <Value>
1420

>  <Unit>
nM

>  <Type>
Ki

>  <pValue>
5.85

>  <Ligand Efficiency>
0.24

>  <Binding Efficiency>
12.89

>  <Surface Efficiency>
6.54

>  <Assay Index>
67398

>  <Assay Category>


>  <Assay Organism>


>  <Target ID>
19

>  <Target Name>
Estrogen receptor alpha

>  <Target Organism>
Homo sapiens

>  <Target Description>
Target is a single protein chain

>  <Sequence Accession>
P03372

>  <Reference>
J Med Chem 45 (25), 5492-5505 (2002)

>  <Pubmed ID>
12459017

>  <DOI>
10.1021/jm020291h

$$$$
253490
Actelion Java MolfileCreator 1.0

 44 48  0  0  0  0  0  0  0  0999 V2000
    0.0000   -0.0000   -0.0000 Cl  0  0  0  0  0  0  0  0  0  0  0  0
   -1.3027    0.7342   -0.0000 C   0  0  0  0  0  0  0  0  0  0  0  0
   -1.3382    2.2382   -0.0000 C   0  0  0  0  0  0  0  0  0  0  0  0
   -2.6172   -0.0000   -0.0000 C   0  0  0  0  0  0  0  0  0  0  0  0
   -2.6527    2.9843   -0.0000 C   0  0  0  0  0  0  0  0  0  0  0  0
   -3.9199    0.7342   -0.0000 C   0  0  0  0  0  0  0  0  0  0  0  0
   -3.9317    2.2264   -0.0000 C   0  0  0  0  0  0  0  0  0  0  0  0
   -5.2462    2.9725   -0.0000 C   0  0  0  0  0  0  0  0  0  0  0  0
   -6.5252    2.2264   -0.0000 C   0  0  0  0  0  0  0  0  0  0  0  0
   -7.8397    2.9725   -0.0000 C   0  0  0  0  0  0  0  0  0  0  0  0
   -9.1424    2.2264   -0.0000 N   0  0  0  0  0  0  0  0  0  0  0  0
  -10.4451    2.9843   -0.0000 C   0  0  0  0  0  0  0  0  0  0  0  0
   -9.1306    0.7461   -0.0000 C   0  0  0  0  0  0  0  0  0  0  0  0
  -10.4569    4.4883   -0.0000 N   0  0  0  0  0  0  0  0  0  0  0  0
  -11.7478    2.2501   -0.0000 N   0  0  0  0  0  0  0  0  0  0  0  0
  -11.7596    5.2462   -0.0000 C   0  0  0  0  0  0  0  0  0  0  0  0
  -13.0504    3.0080   -0.0000 C   0  0  0  0  0  0  0  0  0  0  0  0
  -13.0623    4.5120   -0.0000 N   0  0  0  0  0  0  0  0  0  0  0  0
  -11.7833    6.7502   -0.0000 N   0  0  0  0  0  0  0  0  0  0  0  0
  -14.3650    2.2738   -0.0000 N   0  0  0  0  0  0  0  0  0  0  0  0
  -10.4925    7.5081   -0.0000 C   0  0  0  0  0  0  0  0  0  0  0  0
  -13.0623    7.5081   -0.0000 C   0  0  0  0  0  0  0  0  0  0  0  0
  -15.6676    3.0317   -0.0000 C   0  0  0  0  0  0  0  0  0  0  0  0
  -10.5043    8.9885   -0.0000 C   0  0  0  0  0  0  0  0  0  0  0  0
  -13.0623    9.0121   -0.0000 C   0  0  0  0  0  0  0  0  0  0  0  0
  -16.9703    2.2974   -0.0000 C   0  0  0  0  0  0  0  0  0  0  0  0
  -11.8070    9.7582   -0.0000 N   0  0  0  0  0  0  0  0  0  0  0  0
  -18.2730    3.0554   -0.0000 C   0  0  0  0  0  0  0  0  0  0  0  0
  -11.8070   11.2622   -0.0000 C   0  0  0  0  0  0  0  0  0  0  0  0
  -18.2848    4.5594   -0.0000 C   0  0  0  0  0  0  0  0  0  0  0  0
  -19.5757    2.3211   -0.0000 C   0  0  0  0  0  0  0  0  0  0  0  0
  -10.5280   12.0083   -0.0000 O   0  0  0  0  0  0  0  0  0  0  0  0
  -13.1096   12.0201   -0.0000 C   0  0  0  0  0  0  0  0  0  0  0  0
  -19.5875    5.3173   -0.0000 C   0  0  0  0  0  0  0  0  0  0  0  0
  -20.8783    3.0791   -0.0000 C   0  0  0  0  0  0  0  0  0  0  0  0
  -13.1096   13.5241   -0.0000 C   0  0  0  0  0  0  0  0  0  0  0  0
  -20.8902    4.5830   -0.0000 C   0  0  0  0  0  0  0  0  0  0  0  0
  -14.4123   14.2939   -0.0000 C   0  0  0  0  0  0  0  0  0  0  0  0
  -22.1928    5.3410   -0.0000 O   0  0  0  0  0  0  0  0  0  0  0  0
  -15.7150   13.5597   -0.0000 C   0  0  0  0  0  0  0  0  0  0  0  0
  -14.4242   15.7861   -0.0000 C   0  0  0  0  0  0  0  0  0  0  0  0
  -17.0177   14.3176   -0.0000 C   0  0  0  0  0  0  0  0  0  0  0  0
  -15.7032   16.5558   -0.0000 C   0  0  0  0  0  0  0  0  0  0  0  0
  -17.0295   15.8334   -0.0000 C   0  0  0  0  0  0  0  0  0  0  0  0
  1  2  1  0  0  0  0
  2  3  2  0  0  0  0
  2  4  1  0  0  0  0
  3  5  1  0  0  0  0
  4  6  2  0  0  0  0
  5  7  2  0  0  0  0
  7  8  1  0  0  0  0
  8  9  1  0  0  0  0
  9 10  1  0  0  0  0
 10 11  1  0  0  0  0
 11 12  1  0  0  0  0
 11 13  1  0  0  0  0
 12 14  2  0  0  0  0
 12 15  1  0  0  0  0
 14 16  1  0  0  0  0
 15 17  2  0  0  0  0
 16 18  2  0  0  0  0
 16 19  1  0  0  0  0
 17 20  1  0  0  0  0
 19 21  1  0  0  0  0
 19 22  1  0  0  0  0
 20 23  1  0  0  0  0
 21 24  1  0  0  0  0
 22 25  1  0  0  0  0
 23 26  1  0  0  0  0
 24 27  1  0  0  0  0
 26 28  1  0  0  0  0
 27 29  1  0  0  0  0
 28 30  2  0  0  0  0
 28 31  1  0  0  0  0
 29 32  2  0  0  0  0
 29 33  1  0  0  0  0
 30 34  1  0  0  0  0
 31 35  2  0  0  0  0
 33 36  1  0  0  0  0
 34 37  2  0  0  0  0
 36 38  1  0  0  0  0
 37 39  1  0  0  0  0
 38 40  2  0  0  0  0
 38 41  1  0  0  0  0
 40 42  1  0  0  0  0
 41 43  2  0  0  0  0
 42 44  2  0  0  0  0
  6  7  1  0  0  0  0
 17 18  1  0  0  0  0
 25 27  1  0  0  0  0
 35 37  1  0  0  0  0
 43 44  1  0  0  0  0
M  END
>  <MolRegNo>
253490

>  <m>
=

>  <Value>
1050

>  <Unit>
nM

>  <Type>
Ki

>  <pValue>
5.98

>  <Ligand Efficiency>
0.19

>  <Binding Efficiency>
9.73

>  <Surface Efficiency>
6.12

>  <Assay Index>
67398

>  <Assay Category>


>  <Assay Organism>


>  <Target ID>
19

>  <Target Name>
Estrogen receptor alpha

>  <Target Organism>
Homo sapiens

>  <Target Description>
Target is a single protein chain

>  <Sequence Accession>
P03372

>  <Reference>
J Med Chem 45 (25), 5492-5505 (2002)

>  <Pubmed ID>
12459017

>  <DOI>
10.1021/jm020291h

$$$$
253431
Actelion Java MolfileCreator 1.0

 34 37  0  0  0  0  0  0  0  0999 V2000
    0.0000   -0.0000   -0.0000 F   0  0  0  0  0  0  0  0  0  0  0  0
   -1.3119    0.7327   -0.0000 C   0  0  0  0  0  0  0  0  0  0  0  0
   -2.6119   -0.0000   -0.0000 C   0  0  0  0  0  0  0  0  0  0  0  0
   -1.3473    2.2455   -0.0000 C   0  0  0  0  0  0  0  0  0  0  0  0
   -3.9119    0.7327   -0.0000 C   0  0  0  0  0  0  0  0  0  0  0  0
   -2.6473    3.0019   -0.0000 C   0  0  0  0  0  0  0  0  0  0  0  0
   -3.9356    2.2337   -0.0000 C   0  0  0  0  0  0  0  0  0  0  0  0
   -5.2474    2.9783   -0.0000 C   0  0  0  0  0  0  0  0  0  0  0  0
   -6.5474    2.2337   -0.0000 C   0  0  0  0  0  0  0  0  0  0  0  0
   -7.8475    2.9783   -0.0000 C   0  0  0  0  0  0  0  0  0  0  0  0
   -9.1475    2.2337   -0.0000 N   0  0  0  0  0  0  0  0  0  0  0  0
  -10.4594    2.9901   -0.0000 C   0  0  0  0  0  0  0  0  0  0  0  0
   -9.1475    0.7564   -0.0000 C   0  0  0  0  0  0  0  0  0  0  0  0
  -10.4712    4.4910   -0.0000 N   0  0  0  0  0  0  0  0  0  0  0  0
  -11.7712    2.2573   -0.0000 N   0  0  0  0  0  0  0  0  0  0  0  0
  -11.7830    5.2474   -0.0000 C   0  0  0  0  0  0  0  0  0  0  0  0
  -13.0712    3.0137   -0.0000 C   0  0  0  0  0  0  0  0  0  0  0  0
  -13.0831    4.5147   -0.0000 N   0  0  0  0  0  0  0  0  0  0  0  0
  -11.7948    6.7483   -0.0000 N   0  0  0  0  0  0  0  0  0  0  0  0
  -14.3713    2.2810   -0.0000 N   0  0  0  0  0  0  0  0  0  0  0  0
  -13.1067    7.4811   -0.0000 C   0  0  0  0  0  0  0  0  0  0  0  0
  -10.5184    7.4929   -0.0000 C   0  0  0  0  0  0  0  0  0  0  0  0
  -15.6713    3.0373   -0.0000 C   0  0  0  0  0  0  0  0  0  0  0  0
  -13.1067    8.9939   -0.0000 C   0  0  0  0  0  0  0  0  0  0  0  0
  -10.5303    8.9939   -0.0000 C   0  0  0  0  0  0  0  0  0  0  0  0
  -16.9831    2.3046   -0.0000 C   0  0  0  0  0  0  0  0  0  0  0  0
  -11.8303    9.7502   -0.0000 N   0  0  0  0  0  0  0  0  0  0  0  0
  -18.2832    3.0610   -0.0000 C   0  0  0  0  0  0  0  0  0  0  0  0
  -18.2832    4.5619   -0.0000 C   0  0  0  0  0  0  0  0  0  0  0  0
  -19.5714    2.3282   -0.0000 C   0  0  0  0  0  0  0  0  0  0  0  0
  -19.5832    5.3183   -0.0000 C   0  0  0  0  0  0  0  0  0  0  0  0
  -20.8714    3.0846   -0.0000 C   0  0  0  0  0  0  0  0  0  0  0  0
  -20.8951    4.5856   -0.0000 C   0  0  0  0  0  0  0  0  0  0  0  0
  -22.1951    5.3420   -0.0000 O   0  0  0  0  0  0  0  0  0  0  0  0
  1  2  1  0  0  0  0
  2  3  2  0  0  0  0
  2  4  1  0  0  0  0
  3  5  1  0  0  0  0
  4  6  2  0  0  0  0
  5  7  2  0  0  0  0
  7  8  1  0  0  0  0
  8  9  1  0  0  0  0
  9 10  1  0  0  0  0
 10 11  1  0  0  0  0
 11 12  1  0  0  0  0
 11 13  1  0  0  0  0
 12 14  2  0  0  0  0
 12 15  1  0  0  0  0
 14 16  1  0  0  0  0
 15 17  2  0  0  0  0
 16 18  2  0  0  0  0
 16 19  1  0  0  0  0
 17 20  1  0  0  0  0
 19 21  1  0  0  0  0
 19 22  1  0  0  0  0
 20 23  1  0  0  0  0
 21 24  1  0  0  0  0
 22 25  1  0  0  0  0
 23 26  1  0  0  0  0
 24 27  1  0  0  0  0
 26 28  1  0  0  0  0
 28 29  2  0  0  0  0
 28 30  1  0  0  0  0
 29 31  1  0  0  0  0
 30 32  2  0  0  0  0
 31 33  2  0  0  0  0
 33 34  1  0  0  0  0
  6  7  1  0  0  0  0
 17 18  1  0  0  0  0
 25 27  1  0  0  0  0
 32 33  1  0  0  0  0
M  END
>  <MolRegNo>
253431

>  <m>
=

>  <Value>
380

>  <Unit>
nM

>  <Type>
Ki

>  <pValue>
6.42

>  <Ligand Efficiency>
0.26

>  <Binding Efficiency>
13.79

>  <Surface Efficiency>
7.18

>  <Assay Index>
67398

>  <Assay Category>


>  <Assay Organism>


>  <Target ID>
19

>  <Target Name>
Estrogen receptor alpha

>  <Target Organism>
Homo sapiens

>  <Target Description>
Target is a single protein chain

>  <Sequence Accession>
P03372

>  <Reference>
J Med Chem 45 (25), 5492-5505 (2002)

>  <Pubmed ID>
12459017

>  <DOI>
10.1021/jm020291h

$$$$
253195
Actelion Java MolfileCreator 1.0

 36 40  0  0  0  0  0  0  0  0999 V2000
    0.0000   -0.0000   -0.0000 O   0  0  0  0  0  0  0  0  0  0  0  0
   -1.4338   -0.4740   -0.0000 C   0  0  0  0  0  0  0  0  0  0  0  0
    0.8887   -1.1849   -0.0000 C   0  0  0  0  0  0  0  0  0  0  0  0
   -1.4219   -1.9551   -0.0000 C   0  0  0  0  0  0  0  0  0  0  0  0
   -2.7372    0.2725   -0.0000 C   0  0  0  0  0  0  0  0  0  0  0  0
    0.0118   -2.4054   -0.0000 O   0  0  0  0  0  0  0  0  0  0  0  0
   -2.7253   -2.7016   -0.0000 C   0  0  0  0  0  0  0  0  0  0  0  0
   -4.0169   -0.4740   -0.0000 C   0  0  0  0  0  0  0  0  0  0  0  0
   -4.0287   -1.9551   -0.0000 C   0  0  0  0  0  0  0  0  0  0  0  0
   -5.3322    0.2607   -0.0000 C   0  0  0  0  0  0  0  0  0  0  0  0
   -6.6356   -0.4740   -0.0000 C   0  0  0  0  0  0  0  0  0  0  0  0
   -7.9390    0.2607   -0.0000 C   0  0  0  0  0  0  0  0  0  0  0  0
   -9.2424   -0.4740   -0.0000 N   0  0  0  0  0  0  0  0  0  0  0  0
  -10.5458    0.2725   -0.0000 C   0  0  0  0  0  0  0  0  0  0  0  0
   -9.2424   -1.9551   -0.0000 C   0  0  0  0  0  0  0  0  0  0  0  0
  -10.5577    1.7892   -0.0000 N   0  0  0  0  0  0  0  0  0  0  0  0
  -11.8611   -0.4621   -0.0000 N   0  0  0  0  0  0  0  0  0  0  0  0
  -11.8729    2.5476   -0.0000 C   0  0  0  0  0  0  0  0  0  0  0  0
  -13.1645    0.2962   -0.0000 C   0  0  0  0  0  0  0  0  0  0  0  0
  -13.1764    1.8011   -0.0000 N   0  0  0  0  0  0  0  0  0  0  0  0
  -11.8848    4.0524   -0.0000 N   0  0  0  0  0  0  0  0  0  0  0  0
  -14.4679   -0.4384   -0.0000 N   0  0  0  0  0  0  0  0  0  0  0  0
  -13.1882    4.7871   -0.0000 C   0  0  0  0  0  0  0  0  0  0  0  0
  -10.6051    4.7871   -0.0000 C   0  0  0  0  0  0  0  0  0  0  0  0
  -15.7713    0.3199   -0.0000 C   0  0  0  0  0  0  0  0  0  0  0  0
  -13.1882    6.2920   -0.0000 C   0  0  0  0  0  0  0  0  0  0  0  0
  -10.6169    6.2920   -0.0000 C   0  0  0  0  0  0  0  0  0  0  0  0
  -17.0748   -0.4147   -0.0000 C   0  0  0  0  0  0  0  0  0  0  0  0
  -11.9085    7.0503   -0.0000 N   0  0  0  0  0  0  0  0  0  0  0  0
  -18.3782    0.3436   -0.0000 C   0  0  0  0  0  0  0  0  0  0  0  0
  -19.6697   -0.3792   -0.0000 C   0  0  0  0  0  0  0  0  0  0  0  0
  -18.3782    1.8603   -0.0000 C   0  0  0  0  0  0  0  0  0  0  0  0
  -20.9732    0.3673   -0.0000 C   0  0  0  0  0  0  0  0  0  0  0  0
  -19.6816    2.6187   -0.0000 C   0  0  0  0  0  0  0  0  0  0  0  0
  -20.9969    1.8840   -0.0000 C   0  0  0  0  0  0  0  0  0  0  0  0
  -22.3003    2.6424   -0.0000 O   0  0  0  0  0  0  0  0  0  0  0  0
  1  2  1  0  0  0  0
  1  3  1  0  0  0  0
  2  4  2  0  0  0  0
  2  5  1  0  0  0  0
  3  6  1  0  0  0  0
  4  7  1  0  0  0  0
  5  8  2  0  0  0  0
  7  9  2  0  0  0  0
  8 10  1  0  0  0  0
 10 11  1  0  0  0  0
 11 12  1  0  0  0  0
 12 13  1  0  0  0  0
 13 14  1  0  0  0  0
 13 15  1  0  0  0  0
 14 16  2  0  0  0  0
 14 17  1  0  0  0  0
 16 18  1  0  0  0  0
 17 19  2  0  0  0  0
 18 20  2  0  0  0  0
 18 21  1  0  0  0  0
 19 22  1  0  0  0  0
 21 23  1  0  0  0  0
 21 24  1  0  0  0  0
 22 25  1  0  0  0  0
 23 26  1  0  0  0  0
 24 27  1  0  0  0  0
 25 28  1  0  0  0  0
 26 29  1  0  0  0  0
 28 30  1  0  0  0  0
 30 31  2  0  0  0  0
 30 32  1  0  0  0  0
 31 33  1  0  0  0  0
 32 34  2  0  0  0  0
 33 35  2  0  0  0  0
 35 36  1  0  0  0  0
  4  6  1  0  0  0  0
  8  9  1  0  0  0  0
 19 20  1  0  0  0  0
 27 29  1  0  0  0  0
 34 35  1  0  0  0  0
M  END
>  <MolRegNo>
253195

>  <m>
=

>  <Value>
560

>  <Unit>
nM

>  <Type>
Ki

>  <pValue>
6.25

>  <Ligand Efficiency>
0.24

>  <Binding Efficiency>
12.72

>  <Surface Efficiency>
5.79

>  <Assay Index>
67398

>  <Assay Category>


>  <Assay Organism>


>  <Target ID>
19

>  <Target Name>
Estrogen receptor alpha

>  <Target Organism>
Homo sapiens

>  <Target Description>
Target is a single protein chain

>  <Sequence Accession>
P03372

>  <Reference>
J Med Chem 45 (25), 5492-5505 (2002)

>  <Pubmed ID>
12459017

>  <DOI>
10.1021/jm020291h

$$$$
253185
Actelion Java MolfileCreator 1.0

 34 38  0  0  1  0  0  0  0  0999 V2000
    0.0000   -0.0000   -0.0000 O   0  0  0  0  0  0  0  0  0  0  0  0
    1.2906   -0.7409   -0.0000 C   0  0  0  0  0  0  0  0  0  0  0  0
    2.5811    0.0239   -0.0000 C   0  0  0  0  0  0  0  0  0  0  0  0
    1.2786   -2.2346   -0.0000 C   0  0  0  0  0  0  0  0  0  0  0  0
    3.8717   -0.7170   -0.0000 C   0  0  0  0  0  0  0  0  0  0  0  0
    2.5692   -2.9635   -0.0000 C   0  0  0  0  0  0  0  0  0  0  0  0
    3.8597   -2.2107   -0.0000 C   0  0  0  0  0  0  0  0  0  0  0  0
    5.1503   -2.9516   -0.0000 C   0  0  0  0  0  0  0  0  0  0  0  0
    6.4408   -2.1868   -0.0000 C   0  0  0  0  0  0  0  0  0  0  0  0
    7.7314   -2.9277   -0.0000 N   0  0  0  0  0  0  0  0  0  0  0  0
    9.0339   -2.1629   -0.0000 C   0  0  0  0  0  0  0  0  0  0  0  0
    9.0219   -0.6453   -0.0000 N   0  0  0  0  0  0  0  0  0  0  0  0
   10.3245   -2.9038   -0.0000 N   0  0  0  0  0  0  0  0  0  0  0  0
   10.3125    0.1314   -0.0000 C   0  0  0  0  0  0  0  0  0  0  0  0
   11.6150   -2.1390   -0.0000 C   0  0  0  0  0  0  0  0  0  0  0  0
   11.6031   -0.6094   -0.0000 N   0  0  0  0  0  0  0  0  0  0  0  0
   10.2886    1.6490   -0.0000 N   0  0  0  0  0  0  0  0  0  0  0  0
   12.9056   -2.8679   -0.0000 N   0  0  0  0  0  0  0  0  0  0  0  0
    8.9741    2.3899   -0.0000 C   0  0  0  0  0  0  0  0  0  0  0  0
   11.5911    2.4019   -0.0000 C   0  0  0  0  0  0  0  0  0  0  0  0
   14.1961   -2.0912   -0.0000 C   0  0  0  0  0  0  0  0  0  0  0  0
   12.9175   -4.3616   -0.0000 C   0  0  0  0  0  0  0  0  0  0  0  0
    8.9622    3.9195   -0.0000 C   0  0  0  0  0  0  0  0  0  0  0  0
   11.5792    3.9195   -0.0000 C   0  0  0  0  0  0  0  0  0  0  0  0
   15.4986   -2.8201   -0.0000 C   0  0  0  0  0  0  0  0  0  0  0  0
   10.2528    4.6842   -0.0000 N   0  0  0  0  0  0  0  0  0  0  0  0
   16.9923   -2.7962   -0.0000 C   0  0  0  0  0  0  0  0  0  0  0  0
   16.2395   -4.1107   -0.0000 C   0  0  0  0  0  0  0  0  0  0  0  0
   18.2590   -2.0314   -0.0000 C   0  0  0  0  0  0  0  0  0  0  0  0
   18.2470   -0.5377   -0.0000 C   0  0  0  0  0  0  0  0  0  0  0  0
   19.5615   -2.7723   -0.0000 C   0  0  0  0  0  0  0  0  0  0  0  0
   19.5256    0.2390   -0.0000 C   0  0  0  0  0  0  0  0  0  0  0  0
   20.8521   -2.0075   -0.0000 C   0  0  0  0  0  0  0  0  0  0  0  0
   20.8162   -0.5019   -0.0000 C   0  0  0  0  0  0  0  0  0  0  0  0
  1  2  1  0  0  0  0
  2  3  2  0  0  0  0
  2  4  1  0  0  0  0
  3  5  1  0  0  0  0
  4  6  2  0  0  0  0
  5  7  2  0  0  0  0
  7  8  1  0  0  0  0
  8  9  1  0  0  0  0
  9 10  1  0  0  0  0
 10 11  1  0  0  0  0
 11 12  2  0  0  0  0
 11 13  1  0  0  0  0
 12 14  1  0  0  0  0
 13 15  2  0  0  0  0
 14 16  2  0  0  0  0
 14 17  1  0  0  0  0
 15 18  1  0  0  0  0
 17 19  1  0  0  0  0
 17 20  1  0  0  0  0
 18 21  1  0  0  0  0
 18 22  1  0  0  0  0
 19 23  1  0  0  0  0
 20 24  1  0  0  0  0
 25 21  1  1  0  0  0
 23 26  1  0  0  0  0
 25 27  1  0  0  0  0
 25 28  1  0  0  0  0
 27 29  1  1  0  0  0
 29 30  2  0  0  0  0
 29 31  1  0  0  0  0
 30 32  1  0  0  0  0
 31 33  2  0  0  0  0
 32 34  2  0  0  0  0
  6  7  1  0  0  0  0
 15 16  1  0  0  0  0
 24 26  1  0  0  0  0
 27 28  1  0  0  0  0
 33 34  1  0  0  0  0
M  END
>  <MolRegNo>
253185

>  <m>
=

>  <Value>
1240

>  <Unit>
nM

>  <Type>
Ki

>  <pValue>
5.91

>  <Ligand Efficiency>
0.24

>  <Binding Efficiency>
12.85

>  <Surface Efficiency>
6.6

>  <Assay Index>
67398

>  <Assay Category>


>  <Assay Organism>


>  <Target ID>
19

>  <Target Name>
Estrogen receptor alpha

>  <Target Organism>
Homo sapiens

>  <Target Description>
Target is a single protein chain

>  <Sequence Accession>
P03372

>  <Reference>
J Med Chem 45 (25), 5492-5505 (2002)

>  <Pubmed ID>
12459017

>  <DOI>
10.1021/jm020291h

$$$$
252932
Actelion Java MolfileCreator 1.0

 39 43  0  0  0  0  0  0  0  0999 V2000
    0.0000   -0.0000   -0.0000 Cl  0  0  0  0  0  0  0  0  0  0  0  0
   -1.3024    0.7459   -0.0000 C   0  0  0  0  0  0  0  0  0  0  0  0
   -1.3379    2.2614   -0.0000 C   0  0  0  0  0  0  0  0  0  0  0  0
   -2.6166   -0.0000   -0.0000 C   0  0  0  0  0  0  0  0  0  0  0  0
   -2.6521    2.9955   -0.0000 C   0  0  0  0  0  0  0  0  0  0  0  0
   -3.9189    0.7459   -0.0000 C   0  0  0  0  0  0  0  0  0  0  0  0
   -3.9308    2.2495   -0.0000 C   0  0  0  0  0  0  0  0  0  0  0  0
   -5.2450    2.9955   -0.0000 C   0  0  0  0  0  0  0  0  0  0  0  0
   -6.5237    2.2495   -0.0000 C   0  0  0  0  0  0  0  0  0  0  0  0
   -7.8379    2.9955   -0.0000 C   0  0  0  0  0  0  0  0  0  0  0  0
   -9.1403    2.2495   -0.0000 N   0  0  0  0  0  0  0  0  0  0  0  0
  -10.4426    2.9955   -0.0000 C   0  0  0  0  0  0  0  0  0  0  0  0
   -9.1284    0.7696   -0.0000 C   0  0  0  0  0  0  0  0  0  0  0  0
  -10.4545    4.4991   -0.0000 N   0  0  0  0  0  0  0  0  0  0  0  0
  -11.7450    2.2614   -0.0000 N   0  0  0  0  0  0  0  0  0  0  0  0
  -11.7568    5.2568   -0.0000 C   0  0  0  0  0  0  0  0  0  0  0  0
  -13.0474    3.0191   -0.0000 C   0  0  0  0  0  0  0  0  0  0  0  0
  -13.0592    4.5228   -0.0000 N   0  0  0  0  0  0  0  0  0  0  0  0
  -11.7568    6.7605   -0.0000 N   0  0  0  0  0  0  0  0  0  0  0  0
  -14.3616    2.2851   -0.0000 N   0  0  0  0  0  0  0  0  0  0  0  0
  -10.4663    7.5064   -0.0000 C   0  0  0  0  0  0  0  0  0  0  0  0
  -13.0592    7.5064   -0.0000 C   0  0  0  0  0  0  0  0  0  0  0  0
  -15.6640    3.0428   -0.0000 C   0  0  0  0  0  0  0  0  0  0  0  0
  -10.4782    9.0100   -0.0000 C   0  0  0  0  0  0  0  0  0  0  0  0
  -13.0711    9.0100   -0.0000 C   0  0  0  0  0  0  0  0  0  0  0  0
  -16.9663    2.3087   -0.0000 C   0  0  0  0  0  0  0  0  0  0  0  0
  -11.7805    9.7678   -0.0000 N   0  0  0  0  0  0  0  0  0  0  0  0
  -18.2687    3.0665   -0.0000 C   0  0  0  0  0  0  0  0  0  0  0  0
  -11.7805   11.2714   -0.0000 C   0  0  0  0  0  0  0  0  0  0  0  0
  -18.2805    4.5701   -0.0000 C   0  0  0  0  0  0  0  0  0  0  0  0
  -19.5711    2.3443   -0.0000 C   0  0  0  0  0  0  0  0  0  0  0  0
  -12.9882   12.1594   -0.0000 C   0  0  0  0  0  0  0  0  0  0  0  0
  -10.5847   12.1476   -0.0000 C   0  0  0  0  0  0  0  0  0  0  0  0
  -19.5829    5.3279   -0.0000 C   0  0  0  0  0  0  0  0  0  0  0  0
  -20.8734    3.0902   -0.0000 C   0  0  0  0  0  0  0  0  0  0  0  0
  -12.5383   13.5802   -0.0000 C   0  0  0  0  0  0  0  0  0  0  0  0
  -11.0465   13.5683   -0.0000 C   0  0  0  0  0  0  0  0  0  0  0  0
  -20.8853    4.5938   -0.0000 C   0  0  0  0  0  0  0  0  0  0  0  0
  -22.1876    5.3516   -0.0000 O   0  0  0  0  0  0  0  0  0  0  0  0
  1  2  1  0  0  0  0
  2  3  2  0  0  0  0
  2  4  1  0  0  0  0
  3  5  1  0  0  0  0
  4  6  2  0  0  0  0
  5  7  2  0  0  0  0
  7  8  1  0  0  0  0
  8  9  1  0  0  0  0
  9 10  1  0  0  0  0
 10 11  1  0  0  0  0
 11 12  1  0  0  0  0
 11 13  1  0  0  0  0
 12 14  2  0  0  0  0
 12 15  1  0  0  0  0
 14 16  1  0  0  0  0
 15 17  2  0  0  0  0
 16 18  2  0  0  0  0
 16 19  1  0  0  0  0
 17 20  1  0  0  0  0
 19 21  1  0  0  0  0
 19 22  1  0  0  0  0
 20 23  1  0  0  0  0
 21 24  1  0  0  0  0
 22 25  1  0  0  0  0
 23 26  1  0  0  0  0
 24 27  1  0  0  0  0
 26 28  1  0  0  0  0
 27 29  1  0  0  0  0
 28 30  2  0  0  0  0
 28 31  1  0  0  0  0
 29 32  1  0  0  0  0
 29 33  1  0  0  0  0
 30 34  1  0  0  0  0
 31 35  2  0  0  0  0
 32 36  1  0  0  0  0
 33 37  1  0  0  0  0
 34 38  2  0  0  0  0
 38 39  1  0  0  0  0
  6  7  1  0  0  0  0
 17 18  1  0  0  0  0
 25 27  1  0  0  0  0
 35 38  1  0  0  0  0
 36 37  1  0  0  0  0
M  END
>  <MolRegNo>
252932

>  <m>
=

>  <Value>
180

>  <Unit>
nM

>  <Type>
Ki

>  <pValue>
6.75

>  <Ligand Efficiency>
0.24

>  <Binding Efficiency>
12.26

>  <Surface Efficiency>
8.36

>  <Assay Index>
67398

>  <Assay Category>


>  <Assay Organism>


>  <Target ID>
19

>  <Target Name>
Estrogen receptor alpha

>  <Target Organism>
Homo sapiens

>  <Target Description>
Target is a single protein chain

>  <Sequence Accession>
P03372

>  <Reference>
J Med Chem 45 (25), 5492-5505 (2002)

>  <Pubmed ID>
12459017

>  <DOI>
10.1021/jm020291h

$$$$
253008
Actelion Java MolfileCreator 1.0

 41 44  0  0  0  0  0  0  0  0999 V2000
    0.0000   -0.0000   -0.0000 Cl  0  0  0  0  0  0  0  0  0  0  0  0
   -1.3039    0.7349   -0.0000 C   0  0  0  0  0  0  0  0  0  0  0  0
   -1.3394    2.2403   -0.0000 C   0  0  0  0  0  0  0  0  0  0  0  0
   -2.6196   -0.0000   -0.0000 C   0  0  0  0  0  0  0  0  0  0  0  0
   -2.6551    2.9870   -0.0000 C   0  0  0  0  0  0  0  0  0  0  0  0
   -3.9234    0.7349   -0.0000 C   0  0  0  0  0  0  0  0  0  0  0  0
   -3.9353    2.2284   -0.0000 C   0  0  0  0  0  0  0  0  0  0  0  0
   -5.2510    2.9752   -0.0000 C   0  0  0  0  0  0  0  0  0  0  0  0
   -6.5311    2.2284   -0.0000 C   0  0  0  0  0  0  0  0  0  0  0  0
   -7.8468    2.9752   -0.0000 C   0  0  0  0  0  0  0  0  0  0  0  0
   -9.1507    2.2284   -0.0000 N   0  0  0  0  0  0  0  0  0  0  0  0
  -10.4545    2.9870   -0.0000 C   0  0  0  0  0  0  0  0  0  0  0  0
   -9.1388    0.7468   -0.0000 C   0  0  0  0  0  0  0  0  0  0  0  0
  -10.4664    4.4924   -0.0000 N   0  0  0  0  0  0  0  0  0  0  0  0
  -11.7584    2.2521   -0.0000 N   0  0  0  0  0  0  0  0  0  0  0  0
  -11.7702    5.2510   -0.0000 C   0  0  0  0  0  0  0  0  0  0  0  0
  -13.0622    3.0107   -0.0000 C   0  0  0  0  0  0  0  0  0  0  0  0
  -13.0741    4.5161   -0.0000 N   0  0  0  0  0  0  0  0  0  0  0  0
  -11.7821    6.7563   -0.0000 N   0  0  0  0  0  0  0  0  0  0  0  0
  -14.3779    2.2758   -0.0000 N   0  0  0  0  0  0  0  0  0  0  0  0
  -10.5019    7.5031   -0.0000 C   0  0  0  0  0  0  0  0  0  0  0  0
  -13.0741    7.5031   -0.0000 C   0  0  0  0  0  0  0  0  0  0  0  0
  -15.6818    3.0344   -0.0000 C   0  0  0  0  0  0  0  0  0  0  0  0
  -10.5019    8.9966   -0.0000 C   0  0  0  0  0  0  0  0  0  0  0  0
  -13.0859    9.0203   -0.0000 C   0  0  0  0  0  0  0  0  0  0  0  0
  -16.9856    2.2995   -0.0000 C   0  0  0  0  0  0  0  0  0  0  0  0
  -11.8058    9.7670   -0.0000 N   0  0  0  0  0  0  0  0  0  0  0  0
  -18.2895    3.0581   -0.0000 C   0  0  0  0  0  0  0  0  0  0  0  0
  -11.8058   11.2724   -0.0000 C   0  0  0  0  0  0  0  0  0  0  0  0
  -18.3013    4.5635   -0.0000 C   0  0  0  0  0  0  0  0  0  0  0  0
  -19.5933    2.3232   -0.0000 C   0  0  0  0  0  0  0  0  0  0  0  0
  -10.5256   12.0191   -0.0000 C   0  0  0  0  0  0  0  0  0  0  0  0
  -19.6052    5.3221   -0.0000 C   0  0  0  0  0  0  0  0  0  0  0  0
  -20.8972    3.0818   -0.0000 C   0  0  0  0  0  0  0  0  0  0  0  0
   -9.2455   11.2842   -0.0000 O   0  0  0  0  0  0  0  0  0  0  0  0
  -10.5256   13.5245   -0.0000 C   0  0  0  0  0  0  0  0  0  0  0  0
  -20.9090    4.5872   -0.0000 C   0  0  0  0  0  0  0  0  0  0  0  0
   -9.1033   13.1571   -0.0000 C   0  0  0  0  0  0  0  0  0  0  0  0
   -9.2455   14.2831   -0.0000 C   0  0  0  0  0  0  0  0  0  0  0  0
  -11.8295   14.2950   -0.0000 C   0  0  0  0  0  0  0  0  0  0  0  0
  -22.2129    5.3458   -0.0000 O   0  0  0  0  0  0  0  0  0  0  0  0
  1  2  1  0  0  0  0
  2  3  2  0  0  0  0
  2  4  1  0  0  0  0
  3  5  1  0  0  0  0
  4  6  2  0  0  0  0
  5  7  2  0  0  0  0
  7  8  1  0  0  0  0
  8  9  1  0  0  0  0
  9 10  1  0  0  0  0
 10 11  1  0  0  0  0
 11 12  1  0  0  0  0
 11 13  1  0  0  0  0
 12 14  2  0  0  0  0
 12 15  1  0  0  0  0
 14 16  1  0  0  0  0
 15 17  2  0  0  0  0
 16 18  2  0  0  0  0
 16 19  1  0  0  0  0
 17 20  1  0  0  0  0
 19 21  1  0  0  0  0
 19 22  1  0  0  0  0
 20 23  1  0  0  0  0
 21 24  1  0  0  0  0
 22 25  1  0  0  0  0
 23 26  1  0  0  0  0
 24 27  1  0  0  0  0
 26 28  1  0  0  0  0
 27 29  1  0  0  0  0
 28 30  2  0  0  0  0
 28 31  1  0  0  0  0
 29 32  1  0  0  0  0
 30 33  1  0  0  0  0
 31 34  2  0  0  0  0
 32 35  2  0  0  0  0
 32 36  1  0  0  0  0
 33 37  2  0  0  0  0
 36 38  1  0  0  0  0
 36 39  1  0  0  0  0
 36 40  1  0  0  0  0
 37 41  1  0  0  0  0
  6  7  1  0  0  0  0
 17 18  1  0  0  0  0
 25 27  1  0  0  0  0
 34 37  1  0  0  0  0
M  END
>  <MolRegNo>
253008

>  <m>
=

>  <Value>
1025

>  <Unit>
nM

>  <Type>
Ki

>  <pValue>
5.99

>  <Ligand Efficiency>
0.2

>  <Binding Efficiency>
10.32

>  <Surface Efficiency>
6.13

>  <Assay Index>
67398

>  <Assay Category>


>  <Assay Organism>


>  <Target ID>
19

>  <Target Name>
Estrogen receptor alpha

>  <Target Organism>
Homo sapiens

>  <Target Description>
Target is a single protein chain

>  <Sequence Accession>
P03372

>  <Reference>
J Med Chem 45 (25), 5492-5505 (2002)

>  <Pubmed ID>
12459017

>  <DOI>
10.1021/jm020291h

$$$$
252674
Actelion Java MolfileCreator 1.0

 41 45  0  0  0  0  0  0  0  0999 V2000
    0.0000   -0.0000   -0.0000 Cl  0  0  0  0  0  0  0  0  0  0  0  0
   -1.3043    0.7470   -0.0000 C   0  0  0  0  0  0  0  0  0  0  0  0
   -1.3398    2.2528   -0.0000 C   0  0  0  0  0  0  0  0  0  0  0  0
   -2.6204   -0.0000   -0.0000 C   0  0  0  0  0  0  0  0  0  0  0  0
   -2.6560    2.9998   -0.0000 C   0  0  0  0  0  0  0  0  0  0  0  0
   -3.9247    0.7470   -0.0000 C   0  0  0  0  0  0  0  0  0  0  0  0
   -3.9365    2.2528   -0.0000 C   0  0  0  0  0  0  0  0  0  0  0  0
   -5.2527    2.9880   -0.0000 C   0  0  0  0  0  0  0  0  0  0  0  0
   -6.5332    2.2528   -0.0000 C   0  0  0  0  0  0  0  0  0  0  0  0
   -7.8494    2.9880   -0.0000 C   0  0  0  0  0  0  0  0  0  0  0  0
   -9.1536    2.2528   -0.0000 N   0  0  0  0  0  0  0  0  0  0  0  0
  -10.4579    2.9998   -0.0000 C   0  0  0  0  0  0  0  0  0  0  0  0
   -9.1418    0.7707   -0.0000 C   0  0  0  0  0  0  0  0  0  0  0  0
  -10.4698    4.5175   -0.0000 N   0  0  0  0  0  0  0  0  0  0  0  0
  -11.7622    2.2647   -0.0000 N   0  0  0  0  0  0  0  0  0  0  0  0
  -11.7741    5.2764   -0.0000 C   0  0  0  0  0  0  0  0  0  0  0  0
  -13.0665    3.0235   -0.0000 C   0  0  0  0  0  0  0  0  0  0  0  0
  -13.0783    4.5294   -0.0000 N   0  0  0  0  0  0  0  0  0  0  0  0
  -11.7741    6.7822   -0.0000 N   0  0  0  0  0  0  0  0  0  0  0  0
  -14.3826    2.2884   -0.0000 N   0  0  0  0  0  0  0  0  0  0  0  0
  -13.0783    7.5292   -0.0000 C   0  0  0  0  0  0  0  0  0  0  0  0
  -10.4816    7.5292   -0.0000 C   0  0  0  0  0  0  0  0  0  0  0  0
  -15.6869    3.0473   -0.0000 C   0  0  0  0  0  0  0  0  0  0  0  0
  -13.0902    9.0351   -0.0000 C   0  0  0  0  0  0  0  0  0  0  0  0
  -10.4935    9.0232   -0.0000 C   0  0  0  0  0  0  0  0  0  0  0  0
  -16.9912    2.3121   -0.0000 C   0  0  0  0  0  0  0  0  0  0  0  0
  -11.7978    9.7939   -0.0000 N   0  0  0  0  0  0  0  0  0  0  0  0
  -18.2954    3.0710   -0.0000 C   0  0  0  0  0  0  0  0  0  0  0  0
  -11.7978   11.2998   -0.0000 C   0  0  0  0  0  0  0  0  0  0  0  0
  -18.3073    4.5887   -0.0000 C   0  0  0  0  0  0  0  0  0  0  0  0
  -19.5997    2.3477   -0.0000 C   0  0  0  0  0  0  0  0  0  0  0  0
  -10.5172   12.0468   -0.0000 C   0  0  0  0  0  0  0  0  0  0  0  0
  -19.6116    5.3475   -0.0000 C   0  0  0  0  0  0  0  0  0  0  0  0
  -20.9040    3.0947   -0.0000 C   0  0  0  0  0  0  0  0  0  0  0  0
   -9.1774   11.4539   -0.0000 N   0  0  0  0  0  0  0  0  0  0  0  0
  -10.3749   13.5289   -0.0000 C   0  0  0  0  0  0  0  0  0  0  0  0
  -20.9158    4.6124   -0.0000 C   0  0  0  0  0  0  0  0  0  0  0  0
   -8.1814   12.5566   -0.0000 C   0  0  0  0  0  0  0  0  0  0  0  0
   -8.9165   13.8490   -0.0000 S   0  0  0  0  0  0  0  0  0  0  0  0
  -22.2201    5.3712   -0.0000 O   0  0  0  0  0  0  0  0  0  0  0  0
   -6.7229   12.4143   -0.0000 C   0  0  0  0  0  0  0  0  0  0  0  0
  1  2  1  0  0  0  0
  2  3  2  0  0  0  0
  2  4  1  0  0  0  0
  3  5  1  0  0  0  0
  4  6  2  0  0  0  0
  5  7  2  0  0  0  0
  7  8  1  0  0  0  0
  8  9  1  0  0  0  0
  9 10  1  0  0  0  0
 10 11  1  0  0  0  0
 11 12  1  0  0  0  0
 11 13  1  0  0  0  0
 12 14  2  0  0  0  0
 12 15  1  0  0  0  0
 14 16  1  0  0  0  0
 15 17  2  0  0  0  0
 16 18  2  0  0  0  0
 16 19  1  0  0  0  0
 17 20  1  0  0  0  0
 19 21  1  0  0  0  0
 19 22  1  0  0  0  0
 20 23  1  0  0  0  0
 21 24  1  0  0  0  0
 22 25  1  0  0  0  0
 23 26  1  0  0  0  0
 24 27  1  0  0  0  0
 26 28  1  0  0  0  0
 27 29  1  0  0  0  0
 28 30  2  0  0  0  0
 28 31  1  0  0  0  0
 29 32  1  0  0  0  0
 30 33  1  0  0  0  0
 31 34  2  0  0  0  0
 32 35  1  0  0  0  0
 32 36  2  0  0  0  0
 33 37  2  0  0  0  0
 35 38  2  0  0  0  0
 36 39  1  0  0  0  0
 37 40  1  0  0  0  0
 38 41  1  0  0  0  0
  6  7  1  0  0  0  0
 17 18  1  0  0  0  0
 25 27  1  0  0  0  0
 34 37  1  0  0  0  0
 38 39  1  0  0  0  0
M  END
>  <MolRegNo>
252674

>  <m>
=

>  <Value>
650

>  <Unit>
nM

>  <Type>
Ki

>  <pValue>
6.19

>  <Ligand Efficiency>
0.21

>  <Binding Efficiency>
10.43

>  <Surface Efficiency>
6.61

>  <Assay Index>
67398

>  <Assay Category>


>  <Assay Organism>


>  <Target ID>
19

>  <Target Name>
Estrogen receptor alpha

>  <Target Organism>
Homo sapiens

>  <Target Description>
Target is a single protein chain

>  <Sequence Accession>
P03372

>  <Reference>
J Med Chem 45 (25), 5492-5505 (2002)

>  <Pubmed ID>
12459017

>  <DOI>
10.1021/jm020291h

$$$$
253406
Actelion Java MolfileCreator 1.0

 37 40  0  0  0  0  0  0  0  0999 V2000
    0.0000   -0.0000   -0.0000 Cl  0  0  0  0  0  0  0  0  0  0  0  0
   -1.3028    0.7461   -0.0000 C   0  0  0  0  0  0  0  0  0  0  0  0
   -1.3383    2.2502   -0.0000 C   0  0  0  0  0  0  0  0  0  0  0  0
   -2.6174   -0.0000   -0.0000 C   0  0  0  0  0  0  0  0  0  0  0  0
   -2.6529    2.9964   -0.0000 C   0  0  0  0  0  0  0  0  0  0  0  0
   -3.9201    0.7461   -0.0000 C   0  0  0  0  0  0  0  0  0  0  0  0
   -3.9320    2.2502   -0.0000 C   0  0  0  0  0  0  0  0  0  0  0  0
   -5.2466    2.9845   -0.0000 C   0  0  0  0  0  0  0  0  0  0  0  0
   -6.5257    2.2502   -0.0000 C   0  0  0  0  0  0  0  0  0  0  0  0
   -7.8403    2.9845   -0.0000 C   0  0  0  0  0  0  0  0  0  0  0  0
   -9.1430    2.2502   -0.0000 N   0  0  0  0  0  0  0  0  0  0  0  0
  -10.4458    2.9964   -0.0000 C   0  0  0  0  0  0  0  0  0  0  0  0
   -9.1312    0.7698   -0.0000 C   0  0  0  0  0  0  0  0  0  0  0  0
  -10.4577    4.5123   -0.0000 N   0  0  0  0  0  0  0  0  0  0  0  0
  -11.7486    2.2621   -0.0000 N   0  0  0  0  0  0  0  0  0  0  0  0
  -11.7604    5.2703   -0.0000 C   0  0  0  0  0  0  0  0  0  0  0  0
  -13.0513    3.0200   -0.0000 C   0  0  0  0  0  0  0  0  0  0  0  0
  -13.0632    4.5241   -0.0000 N   0  0  0  0  0  0  0  0  0  0  0  0
  -11.7841    6.7744   -0.0000 N   0  0  0  0  0  0  0  0  0  0  0  0
  -14.3659    2.2858   -0.0000 N   0  0  0  0  0  0  0  0  0  0  0  0
  -10.4932    7.5205   -0.0000 C   0  0  0  0  0  0  0  0  0  0  0  0
  -13.0632    7.5205   -0.0000 C   0  0  0  0  0  0  0  0  0  0  0  0
  -15.6687    3.0437   -0.0000 C   0  0  0  0  0  0  0  0  0  0  0  0
  -10.5050    9.0128   -0.0000 C   0  0  0  0  0  0  0  0  0  0  0  0
  -13.0632    9.0246   -0.0000 C   0  0  0  0  0  0  0  0  0  0  0  0
  -16.9715    2.3094   -0.0000 C   0  0  0  0  0  0  0  0  0  0  0  0
  -11.8078    9.7826   -0.0000 N   0  0  0  0  0  0  0  0  0  0  0  0
  -18.2742    3.0674   -0.0000 C   0  0  0  0  0  0  0  0  0  0  0  0
  -11.8078   11.2867   -0.0000 C   0  0  0  0  0  0  0  0  0  0  0  0
  -18.2861    4.5834   -0.0000 C   0  0  0  0  0  0  0  0  0  0  0  0
  -19.5770    2.3450   -0.0000 C   0  0  0  0  0  0  0  0  0  0  0  0
  -10.5287   12.0328   -0.0000 C   0  0  0  0  0  0  0  0  0  0  0  0
  -19.5889    5.3413   -0.0000 C   0  0  0  0  0  0  0  0  0  0  0  0
  -20.8798    3.0911   -0.0000 C   0  0  0  0  0  0  0  0  0  0  0  0
  -10.5406   13.5369   -0.0000 C   0  0  0  0  0  0  0  0  0  0  0  0
  -20.8916    4.6071   -0.0000 C   0  0  0  0  0  0  0  0  0  0  0  0
  -22.1944    5.3650   -0.0000 O   0  0  0  0  0  0  0  0  0  0  0  0
  1  2  1  0  0  0  0
  2  3  2  0  0  0  0
  2  4  1  0  0  0  0
  3  5  1  0  0  0  0
  4  6  2  0  0  0  0
  5  7  2  0  0  0  0
  7  8  1  0  0  0  0
  8  9  1  0  0  0  0
  9 10  1  0  0  0  0
 10 11  1  0  0  0  0
 11 12  1  0  0  0  0
 11 13  1  0  0  0  0
 12 14  2  0  0  0  0
 12 15  1  0  0  0  0
 14 16  1  0  0  0  0
 15 17  2  0  0  0  0
 16 18  2  0  0  0  0
 16 19  1  0  0  0  0
 17 20  1  0  0  0  0
 19 21  1  0  0  0  0
 19 22  1  0  0  0  0
 20 23  1  0  0  0  0
 21 24  1  0  0  0  0
 22 25  1  0  0  0  0
 23 26  1  0  0  0  0
 24 27  1  0  0  0  0
 26 28  1  0  0  0  0
 27 29  1  0  0  0  0
 28 30  2  0  0  0  0
 28 31  1  0  0  0  0
 29 32  1  0  0  0  0
 30 33  1  0  0  0  0
 31 34  2  0  0  0  0
 32 35  2  0  0  0  0
 33 36  2  0  0  0  0
 36 37  1  0  0  0  0
  6  7  1  0  0  0  0
 17 18  1  0  0  0  0
 25 27  1  0  0  0  0
 34 36  1  0  0  0  0
M  END
>  <MolRegNo>
253406

>  <m>
=

>  <Value>
360

>  <Unit>
nM

>  <Type>
Ki

>  <pValue>
6.44

>  <Ligand Efficiency>
0.24

>  <Binding Efficiency>
12.34

>  <Surface Efficiency>
7.99

>  <Assay Index>
67398

>  <Assay Category>


>  <Assay Organism>


>  <Target ID>
19

>  <Target Name>
Estrogen receptor alpha

>  <Target Organism>
Homo sapiens

>  <Target Description>
Target is a single protein chain

>  <Sequence Accession>
P03372

>  <Reference>
J Med Chem 45 (25), 5492-5505 (2002)

>  <Pubmed ID>
12459017

>  <DOI>
10.1021/jm020291h

$$$$
252628
Actelion Java MolfileCreator 1.0

 33 36  0  0  0  0  0  0  0  0999 V2000
    0.0000   -0.0000   -0.0000 O   0  0  0  0  0  0  0  0  0  0  0  0
    1.2895   -0.7403   -0.0000 C   0  0  0  0  0  0  0  0  0  0  0  0
    2.5910    0.0239   -0.0000 C   0  0  0  0  0  0  0  0  0  0  0  0
    1.2895   -2.2328   -0.0000 C   0  0  0  0  0  0  0  0  0  0  0  0
    3.8805   -0.7164   -0.0000 C   0  0  0  0  0  0  0  0  0  0  0  0
    2.5791   -2.9731   -0.0000 C   0  0  0  0  0  0  0  0  0  0  0  0
    3.8567   -2.2089   -0.0000 C   0  0  0  0  0  0  0  0  0  0  0  0
    5.1462   -2.9492   -0.0000 C   0  0  0  0  0  0  0  0  0  0  0  0
    6.4477   -2.1850   -0.0000 C   0  0  0  0  0  0  0  0  0  0  0  0
    7.7372   -2.9253   -0.0000 N   0  0  0  0  0  0  0  0  0  0  0  0
    9.0267   -2.1612   -0.0000 C   0  0  0  0  0  0  0  0  0  0  0  0
    9.0148   -0.6448   -0.0000 N   0  0  0  0  0  0  0  0  0  0  0  0
   10.3163   -2.9014   -0.0000 N   0  0  0  0  0  0  0  0  0  0  0  0
   10.3043    0.1194   -0.0000 C   0  0  0  0  0  0  0  0  0  0  0  0
   11.6177   -2.1373   -0.0000 C   0  0  0  0  0  0  0  0  0  0  0  0
   11.6058   -0.6209   -0.0000 N   0  0  0  0  0  0  0  0  0  0  0  0
   10.2924    1.6358   -0.0000 N   0  0  0  0  0  0  0  0  0  0  0  0
   12.9192   -2.8776   -0.0000 N   0  0  0  0  0  0  0  0  0  0  0  0
    8.9551    2.3761   -0.0000 C   0  0  0  0  0  0  0  0  0  0  0  0
   11.5819    2.3880   -0.0000 C   0  0  0  0  0  0  0  0  0  0  0  0
   14.2087   -2.1134   -0.0000 C   0  0  0  0  0  0  0  0  0  0  0  0
    8.9670    3.9044   -0.0000 C   0  0  0  0  0  0  0  0  0  0  0  0
   11.5700    3.9044   -0.0000 C   0  0  0  0  0  0  0  0  0  0  0  0
   15.4983   -2.8298   -0.0000 C   0  0  0  0  0  0  0  0  0  0  0  0
   10.2566    4.6686   -0.0000 N   0  0  0  0  0  0  0  0  0  0  0  0
   16.7878   -2.0656   -0.0000 C   0  0  0  0  0  0  0  0  0  0  0  0
   10.2446    6.1850   -0.0000 C   0  0  0  0  0  0  0  0  0  0  0  0
   18.0893   -2.8059   -0.0000 C   0  0  0  0  0  0  0  0  0  0  0  0
   18.0773   -4.2984   -0.0000 C   0  0  0  0  0  0  0  0  0  0  0  0
   19.3669   -2.0298   -0.0000 C   0  0  0  0  0  0  0  0  0  0  0  0
   19.3788   -5.0268   -0.0000 C   0  0  0  0  0  0  0  0  0  0  0  0
   20.6564   -2.7462   -0.0000 C   0  0  0  0  0  0  0  0  0  0  0  0
   20.6683   -4.2507   -0.0000 C   0  0  0  0  0  0  0  0  0  0  0  0
  1  2  1  0  0  0  0
  2  3  2  0  0  0  0
  2  4  1  0  0  0  0
  3  5  1  0  0  0  0
  4  6  2  0  0  0  0
  5  7  2  0  0  0  0
  7  8  1  0  0  0  0
  8  9  1  0  0  0  0
  9 10  1  0  0  0  0
 10 11  1  0  0  0  0
 11 12  2  0  0  0  0
 11 13  1  0  0  0  0
 12 14  1  0  0  0  0
 13 15  2  0  0  0  0
 14 16  2  0  0  0  0
 14 17  1  0  0  0  0
 15 18  1  0  0  0  0
 17 19  1  0  0  0  0
 17 20  1  0  0  0  0
 18 21  1  0  0  0  0
 19 22  1  0  0  0  0
 20 23  1  0  0  0  0
 21 24  1  0  0  0  0
 22 25  1  0  0  0  0
 24 26  1  0  0  0  0
 25 27  1  0  0  0  0
 26 28  1  0  0  0  0
 28 29  2  0  0  0  0
 28 30  1  0  0  0  0
 29 31  1  0  0  0  0
 30 32  2  0  0  0  0
 31 33  2  0  0  0  0
  6  7  1  0  0  0  0
 15 16  1  0  0  0  0
 23 25  1  0  0  0  0
 32 33  1  0  0  0  0
M  END
>  <MolRegNo>
252628

>  <m>
=

>  <Value>
3240

>  <Unit>
nM

>  <Type>
Ki

>  <pValue>
5.49

>  <Ligand Efficiency>
0.23

>  <Binding Efficiency>
12.26

>  <Surface Efficiency>
6.14

>  <Assay Index>
67398

>  <Assay Category>


>  <Assay Organism>


>  <Target ID>
19

>  <Target Name>
Estrogen receptor alpha

>  <Target Organism>
Homo sapiens

>  <Target Description>
Target is a single protein chain

>  <Sequence Accession>
P03372

>  <Reference>
J Med Chem 45 (25), 5492-5505 (2002)

>  <Pubmed ID>
12459017

>  <DOI>
10.1021/jm020291h

$$$$
253301
Actelion Java MolfileCreator 1.0

 34 37  0  0  0  0  0  0  0  0999 V2000
    0.0000   -0.0000   -0.0000 Cl  0  0  0  0  0  0  0  0  0  0  0  0
    0.0119   -1.4836   -0.0000 C   0  0  0  0  0  0  0  0  0  0  0  0
   -1.2699   -2.2313   -0.0000 C   0  0  0  0  0  0  0  0  0  0  0  0
    1.2937   -2.2076   -0.0000 C   0  0  0  0  0  0  0  0  0  0  0  0
   -1.2699   -3.7149   -0.0000 C   0  0  0  0  0  0  0  0  0  0  0  0
   -2.5874   -1.4954   -0.0000 C   0  0  0  0  0  0  0  0  0  0  0  0
    1.3055   -3.6911   -0.0000 C   0  0  0  0  0  0  0  0  0  0  0  0
    0.0119   -4.4389   -0.0000 C   0  0  0  0  0  0  0  0  0  0  0  0
   -3.8929   -2.2313   -0.0000 C   0  0  0  0  0  0  0  0  0  0  0  0
   -5.1985   -1.4954   -0.0000 C   0  0  0  0  0  0  0  0  0  0  0  0
   -6.5040   -2.2313   -0.0000 N   0  0  0  0  0  0  0  0  0  0  0  0
   -7.8095   -1.4836   -0.0000 C   0  0  0  0  0  0  0  0  0  0  0  0
   -6.5040   -3.7149   -0.0000 C   0  0  0  0  0  0  0  0  0  0  0  0
   -7.8214    0.0356   -0.0000 N   0  0  0  0  0  0  0  0  0  0  0  0
   -9.1270   -2.2194   -0.0000 N   0  0  0  0  0  0  0  0  0  0  0  0
   -9.1388    0.7952   -0.0000 C   0  0  0  0  0  0  0  0  0  0  0  0
  -10.4325   -1.4598   -0.0000 C   0  0  0  0  0  0  0  0  0  0  0  0
  -10.4444    0.0475   -0.0000 N   0  0  0  0  0  0  0  0  0  0  0  0
   -9.1507    2.3025   -0.0000 N   0  0  0  0  0  0  0  0  0  0  0  0
  -11.7381   -2.1957   -0.0000 N   0  0  0  0  0  0  0  0  0  0  0  0
  -10.4563    3.0384   -0.0000 C   0  0  0  0  0  0  0  0  0  0  0  0
   -7.8689    3.0384   -0.0000 C   0  0  0  0  0  0  0  0  0  0  0  0
  -13.0436   -1.4361   -0.0000 C   0  0  0  0  0  0  0  0  0  0  0  0
  -10.4563    4.5457   -0.0000 C   0  0  0  0  0  0  0  0  0  0  0  0
   -7.8808    4.5457   -0.0000 C   0  0  0  0  0  0  0  0  0  0  0  0
  -14.3492   -2.1720   -0.0000 C   0  0  0  0  0  0  0  0  0  0  0  0
   -9.1744    5.3053   -0.0000 N   0  0  0  0  0  0  0  0  0  0  0  0
  -15.6547   -1.4124   -0.0000 C   0  0  0  0  0  0  0  0  0  0  0  0
  -16.9484   -2.1364   -0.0000 C   0  0  0  0  0  0  0  0  0  0  0  0
  -15.6547    0.1068   -0.0000 C   0  0  0  0  0  0  0  0  0  0  0  0
  -18.2539   -1.3886   -0.0000 C   0  0  0  0  0  0  0  0  0  0  0  0
  -16.9603    0.8664   -0.0000 C   0  0  0  0  0  0  0  0  0  0  0  0
  -18.2777    0.1306   -0.0000 C   0  0  0  0  0  0  0  0  0  0  0  0
  -19.5832    0.8901   -0.0000 O   0  0  0  0  0  0  0  0  0  0  0  0
  1  2  1  0  0  0  0
  2  3  2  0  0  0  0
  2  4  1  0  0  0  0
  3  5  1  0  0  0  0
  3  6  1  0  0  0  0
  4  7  2  0  0  0  0
  5  8  2  0  0  0  0
  6  9  1  0  0  0  0
  9 10  1  0  0  0  0
 10 11  1  0  0  0  0
 11 12  1  0  0  0  0
 11 13  1  0  0  0  0
 12 14  2  0  0  0  0
 12 15  1  0  0  0  0
 14 16  1  0  0  0  0
 15 17  2  0  0  0  0
 16 18  2  0  0  0  0
 16 19  1  0  0  0  0
 17 20  1  0  0  0  0
 19 21  1  0  0  0  0
 19 22  1  0  0  0  0
 20 23  1  0  0  0  0
 21 24  1  0  0  0  0
 22 25  1  0  0  0  0
 23 26  1  0  0  0  0
 24 27  1  0  0  0  0
 26 28  1  0  0  0  0
 28 29  2  0  0  0  0
 28 30  1  0  0  0  0
 29 31  1  0  0  0  0
 30 32  2  0  0  0  0
 31 33  2  0  0  0  0
 33 34  1  0  0  0  0
  7  8  1  0  0  0  0
 17 18  1  0  0  0  0
 25 27  1  0  0  0  0
 32 33  1  0  0  0  0
M  END
>  <MolRegNo>
253301

>  <m>
=

>  <Value>
680

>  <Unit>
nM

>  <Type>
Ki

>  <pValue>
6.17

>  <Ligand Efficiency>
0.25

>  <Binding Efficiency>
12.79

>  <Surface Efficiency>
6.9

>  <Assay Index>
67398

>  <Assay Category>


>  <Assay Organism>


>  <Target ID>
19

>  <Target Name>
Estrogen receptor alpha

>  <Target Organism>
Homo sapiens

>  <Target Description>
Target is a single protein chain

>  <Sequence Accession>
P03372

>  <Reference>
J Med Chem 45 (25), 5492-5505 (2002)

>  <Pubmed ID>
12459017

>  <DOI>
10.1021/jm020291h

$$$$
253350
Actelion Java MolfileCreator 1.0

 41 45  0  0  0  0  0  0  0  0999 V2000
    0.0000   -0.0000   -0.0000 Cl  0  0  0  0  0  0  0  0  0  0  0  0
   -1.3049    0.7474   -0.0000 C   0  0  0  0  0  0  0  0  0  0  0  0
   -1.3405    2.2659   -0.0000 C   0  0  0  0  0  0  0  0  0  0  0  0
   -2.6217   -0.0000   -0.0000 C   0  0  0  0  0  0  0  0  0  0  0  0
   -2.6573    3.0014   -0.0000 C   0  0  0  0  0  0  0  0  0  0  0  0
   -3.9267    0.7474   -0.0000 C   0  0  0  0  0  0  0  0  0  0  0  0
   -3.9385    2.2540   -0.0000 C   0  0  0  0  0  0  0  0  0  0  0  0
   -5.2554    3.0014   -0.0000 C   0  0  0  0  0  0  0  0  0  0  0  0
   -6.5366    2.2540   -0.0000 C   0  0  0  0  0  0  0  0  0  0  0  0
   -7.8534    3.0014   -0.0000 C   0  0  0  0  0  0  0  0  0  0  0  0
   -9.1583    2.2540   -0.0000 N   0  0  0  0  0  0  0  0  0  0  0  0
  -10.4633    3.0014   -0.0000 C   0  0  0  0  0  0  0  0  0  0  0  0
   -9.1465    0.7711   -0.0000 C   0  0  0  0  0  0  0  0  0  0  0  0
  -10.4751    4.5080   -0.0000 N   0  0  0  0  0  0  0  0  0  0  0  0
  -11.7682    2.2659   -0.0000 N   0  0  0  0  0  0  0  0  0  0  0  0
  -11.7801    5.2672   -0.0000 C   0  0  0  0  0  0  0  0  0  0  0  0
  -13.0731    3.0251   -0.0000 C   0  0  0  0  0  0  0  0  0  0  0  0
  -13.0850    4.5317   -0.0000 N   0  0  0  0  0  0  0  0  0  0  0  0
  -11.8038    6.7738   -0.0000 N   0  0  0  0  0  0  0  0  0  0  0  0
  -14.3899    2.2896   -0.0000 N   0  0  0  0  0  0  0  0  0  0  0  0
  -13.0850    7.5212   -0.0000 C   0  0  0  0  0  0  0  0  0  0  0  0
  -10.5107    7.5212   -0.0000 C   0  0  0  0  0  0  0  0  0  0  0  0
  -15.6949    3.0488   -0.0000 C   0  0  0  0  0  0  0  0  0  0  0  0
  -13.0850    9.0278   -0.0000 C   0  0  0  0  0  0  0  0  0  0  0  0
  -10.5226    9.0278   -0.0000 C   0  0  0  0  0  0  0  0  0  0  0  0
  -16.9998    2.3133   -0.0000 C   0  0  0  0  0  0  0  0  0  0  0  0
  -11.8038    9.7871   -0.0000 N   0  0  0  0  0  0  0  0  0  0  0  0
  -18.3048    3.0725   -0.0000 C   0  0  0  0  0  0  0  0  0  0  0  0
  -11.8038   11.2937   -0.0000 C   0  0  0  0  0  0  0  0  0  0  0  0
  -18.3166    4.5792   -0.0000 C   0  0  0  0  0  0  0  0  0  0  0  0
  -19.6097    2.3489   -0.0000 C   0  0  0  0  0  0  0  0  0  0  0  0
  -10.5226   12.0529   -0.0000 C   0  0  0  0  0  0  0  0  0  0  0  0
  -19.6216    5.3384   -0.0000 C   0  0  0  0  0  0  0  0  0  0  0  0
  -20.9146    3.0963   -0.0000 C   0  0  0  0  0  0  0  0  0  0  0  0
  -10.5344   13.5358   -0.0000 N   0  0  0  0  0  0  0  0  0  0  0  0
   -9.2532   11.2937   -0.0000 C   0  0  0  0  0  0  0  0  0  0  0  0
  -20.9265    4.6029   -0.0000 C   0  0  0  0  0  0  0  0  0  0  0  0
   -9.2532   14.2832   -0.0000 C   0  0  0  0  0  0  0  0  0  0  0  0
   -7.9720   12.0529   -0.0000 C   0  0  0  0  0  0  0  0  0  0  0  0
  -22.2315    5.3621   -0.0000 O   0  0  0  0  0  0  0  0  0  0  0  0
   -7.9720   13.5477   -0.0000 C   0  0  0  0  0  0  0  0  0  0  0  0
  1  2  1  0  0  0  0
  2  3  2  0  0  0  0
  2  4  1  0  0  0  0
  3  5  1  0  0  0  0
  4  6  2  0  0  0  0
  5  7  2  0  0  0  0
  7  8  1  0  0  0  0
  8  9  1  0  0  0  0
  9 10  1  0  0  0  0
 10 11  1  0  0  0  0
 11 12  1  0  0  0  0
 11 13  1  0  0  0  0
 12 14  2  0  0  0  0
 12 15  1  0  0  0  0
 14 16  1  0  0  0  0
 15 17  2  0  0  0  0
 16 18  2  0  0  0  0
 16 19  1  0  0  0  0
 17 20  1  0  0  0  0
 19 21  1  0  0  0  0
 19 22  1  0  0  0  0
 20 23  1  0  0  0  0
 21 24  1  0  0  0  0
 22 25  1  0  0  0  0
 23 26  1  0  0  0  0
 24 27  1  0  0  0  0
 26 28  1  0  0  0  0
 27 29  1  0  0  0  0
 28 30  2  0  0  0  0
 28 31  1  0  0  0  0
 29 32  1  0  0  0  0
 30 33  1  0  0  0  0
 31 34  2  0  0  0  0
 32 35  2  0  0  0  0
 32 36  1  0  0  0  0
 33 37  2  0  0  0  0
 35 38  1  0  0  0  0
 36 39  2  0  0  0  0
 37 40  1  0  0  0  0
 38 41  2  0  0  0  0
  6  7  1  0  0  0  0
 17 18  1  0  0  0  0
 25 27  1  0  0  0  0
 34 37  1  0  0  0  0
 39 41  1  0  0  0  0
M  END
>  <MolRegNo>
253350

>  <m>
=

>  <Value>
675

>  <Unit>
nM

>  <Type>
Ki

>  <pValue>
6.17

>  <Ligand Efficiency>
0.21

>  <Binding Efficiency>
10.77

>  <Surface Efficiency>
6.6

>  <Assay Index>
67398

>  <Assay Category>


>  <Assay Organism>


>  <Target ID>
19

>  <Target Name>
Estrogen receptor alpha

>  <Target Organism>
Homo sapiens

>  <Target Description>
Target is a single protein chain

>  <Sequence Accession>
P03372

>  <Reference>
J Med Chem 45 (25), 5492-5505 (2002)

>  <Pubmed ID>
12459017

>  <DOI>
10.1021/jm020291h

$$$$
253564
Actelion Java MolfileCreator 1.0

 37 40  0  0  0  0  0  0  0  0999 V2000
    0.0000   -0.0000   -0.0000 Cl  0  0  0  0  0  0  0  0  0  0  0  0
   -1.3029    0.7462   -0.0000 C   0  0  0  0  0  0  0  0  0  0  0  0
   -1.3384    2.2623   -0.0000 C   0  0  0  0  0  0  0  0  0  0  0  0
   -2.6058   -0.0000   -0.0000 C   0  0  0  0  0  0  0  0  0  0  0  0
   -2.6413    2.9967   -0.0000 C   0  0  0  0  0  0  0  0  0  0  0  0
   -3.9087    0.7462   -0.0000 C   0  0  0  0  0  0  0  0  0  0  0  0
   -3.9324    2.2505   -0.0000 C   0  0  0  0  0  0  0  0  0  0  0  0
   -5.2353    2.9967   -0.0000 C   0  0  0  0  0  0  0  0  0  0  0  0
   -6.5263    2.2505   -0.0000 C   0  0  0  0  0  0  0  0  0  0  0  0
   -7.8292    2.9967   -0.0000 C   0  0  0  0  0  0  0  0  0  0  0  0
   -9.1321    2.2505   -0.0000 N   0  0  0  0  0  0  0  0  0  0  0  0
  -10.4469    2.9967   -0.0000 C   0  0  0  0  0  0  0  0  0  0  0  0
   -9.1321    0.7699   -0.0000 C   0  0  0  0  0  0  0  0  0  0  0  0
  -10.4587    4.5009   -0.0000 N   0  0  0  0  0  0  0  0  0  0  0  0
  -11.7498    2.2623   -0.0000 N   0  0  0  0  0  0  0  0  0  0  0  0
  -11.7616    5.2590   -0.0000 C   0  0  0  0  0  0  0  0  0  0  0  0
  -13.0527    3.0204   -0.0000 C   0  0  0  0  0  0  0  0  0  0  0  0
  -13.0645    4.5246   -0.0000 N   0  0  0  0  0  0  0  0  0  0  0  0
  -11.7735    6.7514   -0.0000 N   0  0  0  0  0  0  0  0  0  0  0  0
  -14.3556    2.2860   -0.0000 N   0  0  0  0  0  0  0  0  0  0  0  0
  -13.0764    7.5094   -0.0000 C   0  0  0  0  0  0  0  0  0  0  0  0
  -10.4824    7.5094   -0.0000 C   0  0  0  0  0  0  0  0  0  0  0  0
  -15.6585    3.0440   -0.0000 C   0  0  0  0  0  0  0  0  0  0  0  0
  -13.0764    9.0137   -0.0000 C   0  0  0  0  0  0  0  0  0  0  0  0
  -10.4824    8.9900   -0.0000 C   0  0  0  0  0  0  0  0  0  0  0  0
  -16.9732    2.3097   -0.0000 C   0  0  0  0  0  0  0  0  0  0  0  0
  -11.7972    9.7718   -0.0000 N   0  0  0  0  0  0  0  0  0  0  0  0
  -18.2761    3.0677   -0.0000 C   0  0  0  0  0  0  0  0  0  0  0  0
  -11.8090   11.2760   -0.0000 C   0  0  0  0  0  0  0  0  0  0  0  0
  -18.2761    4.5720   -0.0000 C   0  0  0  0  0  0  0  0  0  0  0  0
  -19.5553    2.3452   -0.0000 C   0  0  0  0  0  0  0  0  0  0  0  0
  -10.5180   12.0222   -0.0000 C   0  0  0  0  0  0  0  0  0  0  0  0
  -19.5790    5.3300   -0.0000 C   0  0  0  0  0  0  0  0  0  0  0  0
  -20.8582    3.0914   -0.0000 C   0  0  0  0  0  0  0  0  0  0  0  0
   -9.2387   11.2879   -0.0000 O   0  0  0  0  0  0  0  0  0  0  0  0
  -20.8938    4.5957   -0.0000 C   0  0  0  0  0  0  0  0  0  0  0  0
  -22.1967    5.3537   -0.0000 O   0  0  0  0  0  0  0  0  0  0  0  0
  1  2  1  0  0  0  0
  2  3  2  0  0  0  0
  2  4  1  0  0  0  0
  3  5  1  0  0  0  0
  4  6  2  0  0  0  0
  5  7  2  0  0  0  0
  7  8  1  0  0  0  0
  8  9  1  0  0  0  0
  9 10  1  0  0  0  0
 10 11  1  0  0  0  0
 11 12  1  0  0  0  0
 11 13  1  0  0  0  0
 12 14  2  0  0  0  0
 12 15  1  0  0  0  0
 14 16  1  0  0  0  0
 15 17  2  0  0  0  0
 16 18  2  0  0  0  0
 16 19  1  0  0  0  0
 17 20  1  0  0  0  0
 19 21  1  0  0  0  0
 19 22  1  0  0  0  0
 20 23  1  0  0  0  0
 21 24  1  0  0  0  0
 22 25  1  0  0  0  0
 23 26  1  0  0  0  0
 24 27  1  0  0  0  0
 26 28  1  0  0  0  0
 27 29  1  0  0  0  0
 28 30  2  0  0  0  0
 28 31  1  0  0  0  0
 29 32  1  0  0  0  0
 30 33  1  0  0  0  0
 31 34  2  0  0  0  0
 32 35  1  0  0  0  0
 33 36  2  0  0  0  0
 36 37  1  0  0  0  0
  6  7  1  0  0  0  0
 17 18  1  0  0  0  0
 25 27  1  0  0  0  0
 34 36  1  0  0  0  0
M  END
>  <MolRegNo>
253564

>  <m>
=

>  <Value>
395

>  <Unit>
nM

>  <Type>
Ki

>  <pValue>
6.4

>  <Ligand Efficiency>
0.24

>  <Binding Efficiency>
12.17

>  <Surface Efficiency>
6.35

>  <Assay Index>
67398

>  <Assay Category>


>  <Assay Organism>


>  <Target ID>
19

>  <Target Name>
Estrogen receptor alpha

>  <Target Organism>
Homo sapiens

>  <Target Description>
Target is a single protein chain

>  <Sequence Accession>
P03372

>  <Reference>
J Med Chem 45 (25), 5492-5505 (2002)

>  <Pubmed ID>
12459017

>  <DOI>
10.1021/jm020291h

$$$$
253503
Actelion Java MolfileCreator 1.0

 33 36  0  0  0  0  0  0  0  0999 V2000
    0.0000   -0.0000   -0.0000 Cl  0  0  0  0  0  0  0  0  0  0  0  0
   -1.3109    0.7322   -0.0000 C   0  0  0  0  0  0  0  0  0  0  0  0
   -1.3463    2.2439   -0.0000 C   0  0  0  0  0  0  0  0  0  0  0  0
   -2.6100   -0.0000   -0.0000 C   0  0  0  0  0  0  0  0  0  0  0  0
   -2.6454    2.9997   -0.0000 C   0  0  0  0  0  0  0  0  0  0  0  0
   -3.9091    0.7322   -0.0000 C   0  0  0  0  0  0  0  0  0  0  0  0
   -3.9327    2.2439   -0.0000 C   0  0  0  0  0  0  0  0  0  0  0  0
   -5.2436    2.9879   -0.0000 O   0  0  0  0  0  0  0  0  0  0  0  0
   -6.5427    2.2439   -0.0000 C   0  0  0  0  0  0  0  0  0  0  0  0
   -7.8418    2.9879   -0.0000 C   0  0  0  0  0  0  0  0  0  0  0  0
   -9.1409    2.2439   -0.0000 S   0  0  0  0  0  0  0  0  0  0  0  0
  -10.4518    2.9997   -0.0000 C   0  0  0  0  0  0  0  0  0  0  0  0
  -10.4636    4.4996   -0.0000 N   0  0  0  0  0  0  0  0  0  0  0  0
  -11.7627    2.2675   -0.0000 N   0  0  0  0  0  0  0  0  0  0  0  0
  -11.7745    5.2554   -0.0000 C   0  0  0  0  0  0  0  0  0  0  0  0
  -13.0618    3.0234   -0.0000 C   0  0  0  0  0  0  0  0  0  0  0  0
  -13.0736    4.5232   -0.0000 N   0  0  0  0  0  0  0  0  0  0  0  0
  -11.7864    6.7553   -0.0000 N   0  0  0  0  0  0  0  0  0  0  0  0
  -14.3609    2.2911   -0.0000 N   0  0  0  0  0  0  0  0  0  0  0  0
  -10.5109    7.4993   -0.0000 C   0  0  0  0  0  0  0  0  0  0  0  0
  -13.1091    7.4875   -0.0000 C   0  0  0  0  0  0  0  0  0  0  0  0
  -15.6600    3.0470   -0.0000 C   0  0  0  0  0  0  0  0  0  0  0  0
  -10.5227    8.9992   -0.0000 C   0  0  0  0  0  0  0  0  0  0  0  0
  -13.0973    8.9992   -0.0000 C   0  0  0  0  0  0  0  0  0  0  0  0
  -16.9709    2.3148   -0.0000 C   0  0  0  0  0  0  0  0  0  0  0  0
  -11.8218    9.7550   -0.0000 N   0  0  0  0  0  0  0  0  0  0  0  0
  -18.2700    3.0706   -0.0000 C   0  0  0  0  0  0  0  0  0  0  0  0
  -19.5573    2.3384   -0.0000 C   0  0  0  0  0  0  0  0  0  0  0  0
  -18.2700    4.5705   -0.0000 C   0  0  0  0  0  0  0  0  0  0  0  0
  -20.8564    3.0942   -0.0000 C   0  0  0  0  0  0  0  0  0  0  0  0
  -19.5691    5.3263   -0.0000 C   0  0  0  0  0  0  0  0  0  0  0  0
  -20.8800    4.5941   -0.0000 C   0  0  0  0  0  0  0  0  0  0  0  0
  -22.1791    5.3499   -0.0000 O   0  0  0  0  0  0  0  0  0  0  0  0
  1  2  1  0  0  0  0
  2  3  2  0  0  0  0
  2  4  1  0  0  0  0
  3  5  1  0  0  0  0
  4  6  2  0  0  0  0
  5  7  2  0  0  0  0
  7  8  1  0  0  0  0
  8  9  1  0  0  0  0
  9 10  1  0  0  0  0
 10 11  1  0  0  0  0
 11 12  1  0  0  0  0
 12 13  2  0  0  0  0
 12 14  1  0  0  0  0
 13 15  1  0  0  0  0
 14 16  2  0  0  0  0
 15 17  2  0  0  0  0
 15 18  1  0  0  0  0
 16 19  1  0  0  0  0
 18 20  1  0  0  0  0
 18 21  1  0  0  0  0
 19 22  1  0  0  0  0
 20 23  1  0  0  0  0
 21 24  1  0  0  0  0
 22 25  1  0  0  0  0
 23 26  1  0  0  0  0
 25 27  1  0  0  0  0
 27 28  2  0  0  0  0
 27 29  1  0  0  0  0
 28 30  1  0  0  0  0
 29 31  2  0  0  0  0
 30 32  2  0  0  0  0
 32 33  1  0  0  0  0
  6  7  1  0  0  0  0
 16 17  1  0  0  0  0
 24 26  1  0  0  0  0
 31 32  1  0  0  0  0
M  END
>  <MolRegNo>
253503

>  <m>
=

>  <Value>
570

>  <Unit>
nM

>  <Type>
Ki

>  <pValue>
6.24

>  <Ligand Efficiency>
0.26

>  <Binding Efficiency>
12.82

>  <Surface Efficiency>
6.54

>  <Assay Index>
67398

>  <Assay Category>


>  <Assay Organism>


>  <Target ID>
19

>  <Target Name>
Estrogen receptor alpha

>  <Target Organism>
Homo sapiens

>  <Target Description>
Target is a single protein chain

>  <Sequence Accession>
P03372

>  <Reference>
J Med Chem 45 (25), 5492-5505 (2002)

>  <Pubmed ID>
12459017

>  <DOI>
10.1021/jm020291h

$$$$
252788
Actelion Java MolfileCreator 1.0

 34 37  0  0  0  0  0  0  0  0999 V2000
    0.0000   -0.0000   -0.0000 Cl  0  0  0  0  0  0  0  0  0  0  0  0
   -1.3115    0.7325   -0.0000 C   0  0  0  0  0  0  0  0  0  0  0  0
   -1.3469    2.2449   -0.0000 C   0  0  0  0  0  0  0  0  0  0  0  0
   -2.6111   -0.0000   -0.0000 C   0  0  0  0  0  0  0  0  0  0  0  0
   -2.6466    3.0010   -0.0000 C   0  0  0  0  0  0  0  0  0  0  0  0
   -3.9108    0.7325   -0.0000 C   0  0  0  0  0  0  0  0  0  0  0  0
   -3.9344    2.2449   -0.0000 C   0  0  0  0  0  0  0  0  0  0  0  0
   -5.2459    2.9892   -0.0000 O   0  0  0  0  0  0  0  0  0  0  0  0
   -6.5455    2.2449   -0.0000 C   0  0  0  0  0  0  0  0  0  0  0  0
   -7.8452    2.9892   -0.0000 C   0  0  0  0  0  0  0  0  0  0  0  0
   -9.1448    2.2449   -0.0000 N   0  0  0  0  0  0  0  0  0  0  0  0
  -10.4563    3.0010   -0.0000 C   0  0  0  0  0  0  0  0  0  0  0  0
   -9.1448    0.7680   -0.0000 C   0  0  0  0  0  0  0  0  0  0  0  0
  -10.4681    4.5015   -0.0000 N   0  0  0  0  0  0  0  0  0  0  0  0
  -11.7678    2.2685   -0.0000 N   0  0  0  0  0  0  0  0  0  0  0  0
  -11.7796    5.2577   -0.0000 C   0  0  0  0  0  0  0  0  0  0  0  0
  -13.0674    3.0246   -0.0000 C   0  0  0  0  0  0  0  0  0  0  0  0
  -13.0792    4.5252   -0.0000 N   0  0  0  0  0  0  0  0  0  0  0  0
  -11.7914    6.7582   -0.0000 N   0  0  0  0  0  0  0  0  0  0  0  0
  -14.3671    2.2921   -0.0000 N   0  0  0  0  0  0  0  0  0  0  0  0
  -10.5154    7.5025   -0.0000 C   0  0  0  0  0  0  0  0  0  0  0  0
  -13.1147    7.4907   -0.0000 C   0  0  0  0  0  0  0  0  0  0  0  0
  -15.6667    3.0483   -0.0000 C   0  0  0  0  0  0  0  0  0  0  0  0
  -10.5272    9.0031   -0.0000 C   0  0  0  0  0  0  0  0  0  0  0  0
  -13.1029    9.0031   -0.0000 C   0  0  0  0  0  0  0  0  0  0  0  0
  -16.9782    2.3157   -0.0000 C   0  0  0  0  0  0  0  0  0  0  0  0
  -11.8268    9.7592   -0.0000 N   0  0  0  0  0  0  0  0  0  0  0  0
  -18.2779    3.0719   -0.0000 C   0  0  0  0  0  0  0  0  0  0  0  0
  -19.5657    2.3394   -0.0000 C   0  0  0  0  0  0  0  0  0  0  0  0
  -18.2779    4.5724   -0.0000 C   0  0  0  0  0  0  0  0  0  0  0  0
  -20.8653    3.0955   -0.0000 C   0  0  0  0  0  0  0  0  0  0  0  0
  -19.5775    5.3286   -0.0000 C   0  0  0  0  0  0  0  0  0  0  0  0
  -20.8890    4.5960   -0.0000 C   0  0  0  0  0  0  0  0  0  0  0  0
  -22.1886    5.3522   -0.0000 O   0  0  0  0  0  0  0  0  0  0  0  0
  1  2  1  0  0  0  0
  2  3  2  0  0  0  0
  2  4  1  0  0  0  0
  3  5  1  0  0  0  0
  4  6  2  0  0  0  0
  5  7  2  0  0  0  0
  7  8  1  0  0  0  0
  8  9  1  0  0  0  0
  9 10  1  0  0  0  0
 10 11  1  0  0  0  0
 11 12  1  0  0  0  0
 11 13  1  0  0  0  0
 12 14  2  0  0  0  0
 12 15  1  0  0  0  0
 14 16  1  0  0  0  0
 15 17  2  0  0  0  0
 16 18  2  0  0  0  0
 16 19  1  0  0  0  0
 17 20  1  0  0  0  0
 19 21  1  0  0  0  0
 19 22  1  0  0  0  0
 20 23  1  0  0  0  0
 21 24  1  0  0  0  0
 22 25  1  0  0  0  0
 23 26  1  0  0  0  0
 24 27  1  0  0  0  0
 26 28  1  0  0  0  0
 28 29  2  0  0  0  0
 28 30  1  0  0  0  0
 29 31  1  0  0  0  0
 30 32  2  0  0  0  0
 31 33  2  0  0  0  0
 33 34  1  0  0  0  0
  6  7  1  0  0  0  0
 17 18  1  0  0  0  0
 25 27  1  0  0  0  0
 32 33  1  0  0  0  0
M  END
>  <MolRegNo>
252788

>  <m>
=

>  <Value>
1000

>  <Unit>
nM

>  <Type>
Ki

>  <pValue>
6

>  <Ligand Efficiency>
0.24

>  <Binding Efficiency>
12.4

>  <Surface Efficiency>
6.08

>  <Assay Index>
67398

>  <Assay Category>


>  <Assay Organism>


>  <Target ID>
19

>  <Target Name>
Estrogen receptor alpha

>  <Target Organism>
Homo sapiens

>  <Target Description>
Target is a single protein chain

>  <Sequence Accession>
P03372

>  <Reference>
J Med Chem 45 (25), 5492-5505 (2002)

>  <Pubmed ID>
12459017

>  <DOI>
10.1021/jm020291h

$$$$
252823
Actelion Java MolfileCreator 1.0

 45 49  0  0  0  0  0  0  0  0999 V2000
    0.0000   -0.0000   -0.0000 Cl  0  0  0  0  0  0  0  0  0  0  0  0
   -1.3116    0.7326   -0.0000 C   0  0  0  0  0  0  0  0  0  0  0  0
   -1.3470    2.2450   -0.0000 C   0  0  0  0  0  0  0  0  0  0  0  0
   -2.6113   -0.0000   -0.0000 C   0  0  0  0  0  0  0  0  0  0  0  0
   -2.6468    3.0013   -0.0000 C   0  0  0  0  0  0  0  0  0  0  0  0
   -3.9111    0.7326   -0.0000 C   0  0  0  0  0  0  0  0  0  0  0  0
   -3.9347    2.2450   -0.0000 C   0  0  0  0  0  0  0  0  0  0  0  0
   -5.2463    2.9895   -0.0000 C   0  0  0  0  0  0  0  0  0  0  0  0
   -6.5461    2.2450   -0.0000 C   0  0  0  0  0  0  0  0  0  0  0  0
   -7.8459    2.9895   -0.0000 C   0  0  0  0  0  0  0  0  0  0  0  0
   -9.1456    2.2450   -0.0000 N   0  0  0  0  0  0  0  0  0  0  0  0
  -10.4572    3.0013   -0.0000 C   0  0  0  0  0  0  0  0  0  0  0  0
   -9.1456    0.7680   -0.0000 C   0  0  0  0  0  0  0  0  0  0  0  0
  -10.4690    4.5019   -0.0000 N   0  0  0  0  0  0  0  0  0  0  0  0
  -11.7688    2.2687   -0.0000 N   0  0  0  0  0  0  0  0  0  0  0  0
  -11.7806    5.2581   -0.0000 C   0  0  0  0  0  0  0  0  0  0  0  0
  -13.0686    3.0249   -0.0000 C   0  0  0  0  0  0  0  0  0  0  0  0
  -13.0804    4.5255   -0.0000 N   0  0  0  0  0  0  0  0  0  0  0  0
  -11.7924    6.7588   -0.0000 N   0  0  0  0  0  0  0  0  0  0  0  0
  -14.3683    2.2923   -0.0000 N   0  0  0  0  0  0  0  0  0  0  0  0
  -10.5163    7.5032   -0.0000 C   0  0  0  0  0  0  0  0  0  0  0  0
  -13.1040    7.4914   -0.0000 C   0  0  0  0  0  0  0  0  0  0  0  0
  -15.6681    3.0485   -0.0000 C   0  0  0  0  0  0  0  0  0  0  0  0
  -10.5281    9.0038   -0.0000 C   0  0  0  0  0  0  0  0  0  0  0  0
  -13.1040    9.0038   -0.0000 C   0  0  0  0  0  0  0  0  0  0  0  0
  -16.9797    2.3159   -0.0000 C   0  0  0  0  0  0  0  0  0  0  0  0
  -11.8279    9.7601   -0.0000 N   0  0  0  0  0  0  0  0  0  0  0  0
  -18.2794    3.0722   -0.0000 C   0  0  0  0  0  0  0  0  0  0  0  0
  -11.8397   11.2607   -0.0000 S   0  0  0  0  0  0  0  0  0  0  0  0
  -19.5674    2.3396   -0.0000 C   0  0  0  0  0  0  0  0  0  0  0  0
  -18.2794    4.5728   -0.0000 C   0  0  0  0  0  0  0  0  0  0  0  0
  -10.5517   12.0169   -0.0000 O   0  0  0  0  0  0  0  0  0  0  0  0
  -13.1394   12.0287   -0.0000 O   0  0  0  0  0  0  0  0  0  0  0  0
  -11.8515   12.7732   -0.0000 C   0  0  0  0  0  0  0  0  0  0  0  0
  -20.8671    3.0958   -0.0000 C   0  0  0  0  0  0  0  0  0  0  0  0
  -19.5792    5.3290   -0.0000 C   0  0  0  0  0  0  0  0  0  0  0  0
  -13.1631   13.5294   -0.0000 C   0  0  0  0  0  0  0  0  0  0  0  0
  -20.8908    4.5964   -0.0000 C   0  0  0  0  0  0  0  0  0  0  0  0
  -13.1749   15.0300   -0.0000 C   0  0  0  0  0  0  0  0  0  0  0  0
  -22.1905    5.3527   -0.0000 O   0  0  0  0  0  0  0  0  0  0  0  0
  -14.4865   15.7626   -0.0000 C   0  0  0  0  0  0  0  0  0  0  0  0
  -11.9106   15.7862   -0.0000 C   0  0  0  0  0  0  0  0  0  0  0  0
  -14.5101   17.2633   -0.0000 C   0  0  0  0  0  0  0  0  0  0  0  0
  -11.9224   17.2869   -0.0000 C   0  0  0  0  0  0  0  0  0  0  0  0
  -13.2222   18.0313   -0.0000 C   0  0  0  0  0  0  0  0  0  0  0  0
  1  2  1  0  0  0  0
  2  3  2  0  0  0  0
  2  4  1  0  0  0  0
  3  5  1  0  0  0  0
  4  6  2  0  0  0  0
  5  7  2  0  0  0  0
  7  8  1  0  0  0  0
  8  9  1  0  0  0  0
  9 10  1  0  0  0  0
 10 11  1  0  0  0  0
 11 12  1  0  0  0  0
 11 13  1  0  0  0  0
 12 14  2  0  0  0  0
 12 15  1  0  0  0  0
 14 16  1  0  0  0  0
 15 17  2  0  0  0  0
 16 18  2  0  0  0  0
 16 19  1  0  0  0  0
 17 20  1  0  0  0  0
 19 21  1  0  0  0  0
 19 22  1  0  0  0  0
 20 23  1  0  0  0  0
 21 24  1  0  0  0  0
 22 25  1  0  0  0  0
 23 26  1  0  0  0  0
 24 27  1  0  0  0  0
 26 28  1  0  0  0  0
 27 29  1  0  0  0  0
 28 30  2  0  0  0  0
 28 31  1  0  0  0  0
 29 32  2  0  0  0  0
 29 33  2  0  0  0  0
 29 34  1  0  0  0  0
 30 35  1  0  0  0  0
 31 36  2  0  0  0  0
 34 37  2  0  0  0  0
 35 38  2  0  0  0  0
 37 39  1  0  0  0  0
 38 40  1  0  0  0  0
 39 41  2  0  0  0  0
 39 42  1  0  0  0  0
 41 43  1  0  0  0  0
 42 44  2  0  0  0  0
 43 45  2  0  0  0  0
  6  7  1  0  0  0  0
 17 18  1  0  0  0  0
 25 27  1  0  0  0  0
 36 38  1  0  0  0  0
 44 45  1  0  0  0  0
M  END
>  <MolRegNo>
252823

>  <m>
=

>  <Value>
1300

>  <Unit>
nM

>  <Type>
Ki

>  <pValue>
5.89

>  <Ligand Efficiency>
0.18

>  <Binding Efficiency>
9.08

>  <Surface Efficiency>
5.13

>  <Assay Index>
67398

>  <Assay Category>


>  <Assay Organism>


>  <Target ID>
19

>  <Target Name>
Estrogen receptor alpha

>  <Target Organism>
Homo sapiens

>  <Target Description>
Target is a single protein chain

>  <Sequence Accession>
P03372

>  <Reference>
J Med Chem 45 (25), 5492-5505 (2002)

>  <Pubmed ID>
12459017

>  <DOI>
10.1021/jm020291h

$$$$
252691
Actelion Java MolfileCreator 1.0

 32 35  0  0  0  0  0  0  0  0999 V2000
    0.0000   -0.0000   -0.0000 O   0  0  0  0  0  0  0  0  0  0  0  0
    1.2890   -0.7400   -0.0000 C   0  0  0  0  0  0  0  0  0  0  0  0
    1.2890   -2.2318   -0.0000 C   0  0  0  0  0  0  0  0  0  0  0  0
    2.5899    0.0239   -0.0000 C   0  0  0  0  0  0  0  0  0  0  0  0
    2.5779   -2.9718   -0.0000 C   0  0  0  0  0  0  0  0  0  0  0  0
    3.8788   -0.7161   -0.0000 C   0  0  0  0  0  0  0  0  0  0  0  0
    3.8550   -2.2079   -0.0000 C   0  0  0  0  0  0  0  0  0  0  0  0
    5.1439   -2.9479   -0.0000 C   0  0  0  0  0  0  0  0  0  0  0  0
    6.4448   -2.1841   -0.0000 C   0  0  0  0  0  0  0  0  0  0  0  0
    7.7338   -2.9240   -0.0000 N   0  0  0  0  0  0  0  0  0  0  0  0
    9.0228   -2.1602   -0.0000 C   0  0  0  0  0  0  0  0  0  0  0  0
    9.0108   -0.6445   -0.0000 N   0  0  0  0  0  0  0  0  0  0  0  0
   10.3117   -2.9002   -0.0000 N   0  0  0  0  0  0  0  0  0  0  0  0
   10.2998    0.1193   -0.0000 C   0  0  0  0  0  0  0  0  0  0  0  0
   11.6126   -2.1363   -0.0000 C   0  0  0  0  0  0  0  0  0  0  0  0
   11.6007   -0.6206   -0.0000 N   0  0  0  0  0  0  0  0  0  0  0  0
   10.2878    1.6351   -0.0000 N   0  0  0  0  0  0  0  0  0  0  0  0
   12.9135   -2.8763   -0.0000 N   0  0  0  0  0  0  0  0  0  0  0  0
    8.9511    2.3750   -0.0000 C   0  0  0  0  0  0  0  0  0  0  0  0
   11.5768    2.3870   -0.0000 C   0  0  0  0  0  0  0  0  0  0  0  0
   14.1309   -1.9931   -0.0000 C   0  0  0  0  0  0  0  0  0  0  0  0
    8.9631    3.9027   -0.0000 C   0  0  0  0  0  0  0  0  0  0  0  0
   11.5649    3.9027   -0.0000 C   0  0  0  0  0  0  0  0  0  0  0  0
   15.4914   -2.6018   -0.0000 C   0  0  0  0  0  0  0  0  0  0  0  0
   10.2520    4.6665   -0.0000 N   0  0  0  0  0  0  0  0  0  0  0  0
   16.7804   -1.8260   -0.0000 C   0  0  0  0  0  0  0  0  0  0  0  0
   18.0694   -2.5660   -0.0000 C   0  0  0  0  0  0  0  0  0  0  0  0
   18.0694   -4.0579   -0.0000 C   0  0  0  0  0  0  0  0  0  0  0  0
   19.3464   -1.7902   -0.0000 C   0  0  0  0  0  0  0  0  0  0  0  0
   19.3583   -4.7978   -0.0000 C   0  0  0  0  0  0  0  0  0  0  0  0
   20.6592   -2.5183   -0.0000 C   0  0  0  0  0  0  0  0  0  0  0  0
   20.6473   -4.0220   -0.0000 C   0  0  0  0  0  0  0  0  0  0  0  0
  1  2  1  0  0  0  0
  2  3  2  0  0  0  0
  2  4  1  0  0  0  0
  3  5  1  0  0  0  0
  4  6  2  0  0  0  0
  5  7  2  0  0  0  0
  7  8  1  0  0  0  0
  8  9  1  0  0  0  0
  9 10  1  0  0  0  0
 10 11  1  0  0  0  0
 11 12  2  0  0  0  0
 11 13  1  0  0  0  0
 12 14  1  0  0  0  0
 13 15  2  0  0  0  0
 14 16  2  0  0  0  0
 14 17  1  0  0  0  0
 15 18  1  0  0  0  0
 17 19  1  0  0  0  0
 17 20  1  0  0  0  0
 18 21  1  0  0  0  0
 19 22  1  0  0  0  0
 20 23  1  0  0  0  0
 21 24  1  0  0  0  0
 22 25  1  0  0  0  0
 24 26  2  0  0  0  0
 26 27  1  0  0  0  0
 27 28  2  0  0  0  0
 27 29  1  0  0  0  0
 28 30  1  0  0  0  0
 29 31  2  0  0  0  0
 30 32  2  0  0  0  0
  6  7  1  0  0  0  0
 15 16  1  0  0  0  0
 23 25  1  0  0  0  0
 31 32  1  0  0  0  0
M  END
>  <MolRegNo>
252691

>  <m>
=

>  <Value>
6870

>  <Unit>
nM

>  <Type>
Ki

>  <pValue>
5.16

>  <Ligand Efficiency>
0.22

>  <Binding Efficiency>
11.96

>  <Surface Efficiency>
5.26

>  <Assay Index>
67398

>  <Assay Category>


>  <Assay Organism>


>  <Target ID>
19

>  <Target Name>
Estrogen receptor alpha

>  <Target Organism>
Homo sapiens

>  <Target Description>
Target is a single protein chain

>  <Sequence Accession>
P03372

>  <Reference>
J Med Chem 45 (25), 5492-5505 (2002)

>  <Pubmed ID>
12459017

>  <DOI>
10.1021/jm020291h

$$$$
253143
Actelion Java MolfileCreator 1.0

 33 36  0  0  0  0  0  0  0  0999 V2000
    0.0000   -0.0000   -0.0000 Cl  0  0  0  0  0  0  0  0  0  0  0  0
   -1.3112   -0.7442   -0.0000 C   0  0  0  0  0  0  0  0  0  0  0  0
   -2.6224    0.0236   -0.0000 C   0  0  0  0  0  0  0  0  0  0  0  0
   -1.3230   -2.2325   -0.0000 C   0  0  0  0  0  0  0  0  0  0  0  0
   -3.9335   -0.7206   -0.0000 C   0  0  0  0  0  0  0  0  0  0  0  0
   -2.6342   -2.9649   -0.0000 C   0  0  0  0  0  0  0  0  0  0  0  0
   -3.9453   -2.2089   -0.0000 C   0  0  0  0  0  0  0  0  0  0  0  0
   -5.2565   -2.9413   -0.0000 C   0  0  0  0  0  0  0  0  0  0  0  0
   -5.2683   -4.4296   -0.0000 C   0  0  0  0  0  0  0  0  0  0  0  0
   -6.5795   -5.1620   -0.0000 C   0  0  0  0  0  0  0  0  0  0  0  0
   -6.5913   -6.6504   -0.0000 S   0  0  0  0  0  0  0  0  0  0  0  0
   -7.9025   -7.3827   -0.0000 C   0  0  0  0  0  0  0  0  0  0  0  0
   -7.9143   -8.8711   -0.0000 N   0  0  0  0  0  0  0  0  0  0  0  0
   -9.2137   -6.6268   -0.0000 N   0  0  0  0  0  0  0  0  0  0  0  0
   -9.2255   -9.6035   -0.0000 C   0  0  0  0  0  0  0  0  0  0  0  0
  -10.5248   -7.3591   -0.0000 C   0  0  0  0  0  0  0  0  0  0  0  0
  -10.5367   -8.8475   -0.0000 N   0  0  0  0  0  0  0  0  0  0  0  0
   -9.2373  -11.0918   -0.0000 N   0  0  0  0  0  0  0  0  0  0  0  0
  -11.8360   -6.6031   -0.0000 N   0  0  0  0  0  0  0  0  0  0  0  0
  -10.5485  -11.8360   -0.0000 C   0  0  0  0  0  0  0  0  0  0  0  0
   -7.9497  -11.8360   -0.0000 C   0  0  0  0  0  0  0  0  0  0  0  0
  -13.1472   -7.3355   -0.0000 C   0  0  0  0  0  0  0  0  0  0  0  0
  -10.5603  -13.3244   -0.0000 C   0  0  0  0  0  0  0  0  0  0  0  0
   -7.9616  -13.3244   -0.0000 C   0  0  0  0  0  0  0  0  0  0  0  0
  -14.4584   -6.5795   -0.0000 C   0  0  0  0  0  0  0  0  0  0  0  0
   -9.2727  -14.0567   -0.0000 N   0  0  0  0  0  0  0  0  0  0  0  0
  -15.7695   -7.3119   -0.0000 C   0  0  0  0  0  0  0  0  0  0  0  0
  -15.7814   -8.8002   -0.0000 C   0  0  0  0  0  0  0  0  0  0  0  0
  -17.0807   -6.5559   -0.0000 C   0  0  0  0  0  0  0  0  0  0  0  0
  -17.0925   -9.5326   -0.0000 C   0  0  0  0  0  0  0  0  0  0  0  0
  -18.3919   -7.2882   -0.0000 C   0  0  0  0  0  0  0  0  0  0  0  0
  -18.4037   -8.7766   -0.0000 C   0  0  0  0  0  0  0  0  0  0  0  0
  -19.7149   -9.5090   -0.0000 O   0  0  0  0  0  0  0  0  0  0  0  0
  1  2  1  0  0  0  0
  2  3  2  0  0  0  0
  2  4  1  0  0  0  0
  3  5  1  0  0  0  0
  4  6  2  0  0  0  0
  5  7  2  0  0  0  0
  7  8  1  0  0  0  0
  8  9  1  0  0  0  0
  9 10  1  0  0  0  0
 10 11  1  0  0  0  0
 11 12  1  0  0  0  0
 12 13  2  0  0  0  0
 12 14  1  0  0  0  0
 13 15  1  0  0  0  0
 14 16  2  0  0  0  0
 15 17  2  0  0  0  0
 15 18  1  0  0  0  0
 16 19  1  0  0  0  0
 18 20  1  0  0  0  0
 18 21  1  0  0  0  0
 19 22  1  0  0  0  0
 20 23  1  0  0  0  0
 21 24  1  0  0  0  0
 22 25  1  0  0  0  0
 23 26  1  0  0  0  0
 25 27  1  0  0  0  0
 27 28  2  0  0  0  0
 27 29  1  0  0  0  0
 28 30  1  0  0  0  0
 29 31  2  0  0  0  0
 30 32  2  0  0  0  0
 32 33  1  0  0  0  0
  6  7  1  0  0  0  0
 16 17  1  0  0  0  0
 24 26  1  0  0  0  0
 31 32  1  0  0  0  0
M  END
>  <MolRegNo>
253143

>  <m>
=

>  <Value>
160

>  <Unit>
nM

>  <Type>
Ki

>  <pValue>
6.8

>  <Ligand Efficiency>
0.28

>  <Binding Efficiency>
14.01

>  <Surface Efficiency>
7.88

>  <Assay Index>
67398

>  <Assay Category>


>  <Assay Organism>


>  <Target ID>
19

>  <Target Name>
Estrogen receptor alpha

>  <Target Organism>
Homo sapiens

>  <Target Description>
Target is a single protein chain

>  <Sequence Accession>
P03372

>  <Reference>
J Med Chem 45 (25), 5492-5505 (2002)

>  <Pubmed ID>
12459017

>  <DOI>
10.1021/jm020291h

$$$$
252694
Actelion Java MolfileCreator 1.0

 32 35  0  0  0  0  0  0  0  0999 V2000
    0.0000   -0.0000   -0.0000 O   0  0  0  0  0  0  0  0  0  0  0  0
    1.2923   -0.7418   -0.0000 C   0  0  0  0  0  0  0  0  0  0  0  0
    2.5845    0.0239   -0.0000 C   0  0  0  0  0  0  0  0  0  0  0  0
    1.2923   -2.2375   -0.0000 C   0  0  0  0  0  0  0  0  0  0  0  0
    3.8768   -0.7179   -0.0000 C   0  0  0  0  0  0  0  0  0  0  0  0
    2.5845   -2.9794   -0.0000 C   0  0  0  0  0  0  0  0  0  0  0  0
    3.8528   -2.2136   -0.0000 C   0  0  0  0  0  0  0  0  0  0  0  0
    5.1451   -2.9554   -0.0000 C   0  0  0  0  0  0  0  0  0  0  0  0
    6.4373   -2.1897   -0.0000 C   0  0  0  0  0  0  0  0  0  0  0  0
    7.7296   -2.9315   -0.0000 N   0  0  0  0  0  0  0  0  0  0  0  0
    9.0218   -2.1657   -0.0000 C   0  0  0  0  0  0  0  0  0  0  0  0
    9.0099   -0.6461   -0.0000 N   0  0  0  0  0  0  0  0  0  0  0  0
   10.3141   -2.9076   -0.0000 N   0  0  0  0  0  0  0  0  0  0  0  0
   10.3021    0.1197   -0.0000 C   0  0  0  0  0  0  0  0  0  0  0  0
   11.6183   -2.1418   -0.0000 C   0  0  0  0  0  0  0  0  0  0  0  0
   11.6064   -0.6222   -0.0000 N   0  0  0  0  0  0  0  0  0  0  0  0
   10.2902    1.6392   -0.0000 N   0  0  0  0  0  0  0  0  0  0  0  0
   12.9106   -2.8836   -0.0000 N   0  0  0  0  0  0  0  0  0  0  0  0
   11.5824    2.3931   -0.0000 C   0  0  0  0  0  0  0  0  0  0  0  0
    8.9620    2.3811   -0.0000 C   0  0  0  0  0  0  0  0  0  0  0  0
   14.2028   -2.1179   -0.0000 C   0  0  0  0  0  0  0  0  0  0  0  0
   11.5705    3.9127   -0.0000 C   0  0  0  0  0  0  0  0  0  0  0  0
    8.9740    3.9007   -0.0000 C   0  0  0  0  0  0  0  0  0  0  0  0
   15.4951   -2.8358   -0.0000 C   0  0  0  0  0  0  0  0  0  0  0  0
   10.2543    4.6784   -0.0000 N   0  0  0  0  0  0  0  0  0  0  0  0
   16.7873   -2.0700   -0.0000 C   0  0  0  0  0  0  0  0  0  0  0  0
   18.0916   -2.7999   -0.0000 C   0  0  0  0  0  0  0  0  0  0  0  0
   19.3599   -2.0221   -0.0000 C   0  0  0  0  0  0  0  0  0  0  0  0
   18.0796   -4.2955   -0.0000 C   0  0  0  0  0  0  0  0  0  0  0  0
   20.6521   -2.7401   -0.0000 C   0  0  0  0  0  0  0  0  0  0  0  0
   19.3718   -5.0254   -0.0000 C   0  0  0  0  0  0  0  0  0  0  0  0
   20.6641   -4.2477   -0.0000 C   0  0  0  0  0  0  0  0  0  0  0  0
  1  2  1  0  0  0  0
  2  3  2  0  0  0  0
  2  4  1  0  0  0  0
  3  5  1  0  0  0  0
  4  6  2  0  0  0  0
  5  7  2  0  0  0  0
  7  8  1  0  0  0  0
  8  9  1  0  0  0  0
  9 10  1  0  0  0  0
 10 11  1  0  0  0  0
 11 12  2  0  0  0  0
 11 13  1  0  0  0  0
 12 14  1  0  0  0  0
 13 15  2  0  0  0  0
 14 16  2  0  0  0  0
 14 17  1  0  0  0  0
 15 18  1  0  0  0  0
 17 19  1  0  0  0  0
 17 20  1  0  0  0  0
 18 21  1  0  0  0  0
 19 22  1  0  0  0  0
 20 23  1  0  0  0  0
 21 24  1  0  0  0  0
 22 25  1  0  0  0  0
 24 26  1  0  0  0  0
 26 27  1  0  0  0  0
 27 28  2  0  0  0  0
 27 29  1  0  0  0  0
 28 30  1  0  0  0  0
 29 31  2  0  0  0  0
 30 32  2  0  0  0  0
  6  7  1  0  0  0  0
 15 16  1  0  0  0  0
 23 25  1  0  0  0  0
 31 32  1  0  0  0  0
M  END
>  <MolRegNo>
252694

>  <m>
=

>  <Value>
1380

>  <Unit>
nM

>  <Type>
Ki

>  <pValue>
5.86

>  <Ligand Efficiency>
0.25

>  <Binding Efficiency>
13.52

>  <Surface Efficiency>
5.97

>  <Assay Index>
67398

>  <Assay Category>


>  <Assay Organism>


>  <Target ID>
19

>  <Target Name>
Estrogen receptor alpha

>  <Target Organism>
Homo sapiens

>  <Target Description>
Target is a single protein chain

>  <Sequence Accession>
P03372

>  <Reference>
J Med Chem 45 (25), 5492-5505 (2002)

>  <Pubmed ID>
12459017

>  <DOI>
10.1021/jm020291h

$$$$
253183
Actelion Java MolfileCreator 1.0

 36 39  0  0  1  0  0  0  0  0999 V2000
    0.0000   -0.0000   -0.0000 Cl  0  0  0  0  0  0  0  0  0  0  0  0
   -1.3014    0.7453   -0.0000 C   0  0  0  0  0  0  0  0  0  0  0  0
   -1.3369    2.2479   -0.0000 C   0  0  0  0  0  0  0  0  0  0  0  0
   -2.6146   -0.0000   -0.0000 C   0  0  0  0  0  0  0  0  0  0  0  0
   -2.6501    2.9932   -0.0000 C   0  0  0  0  0  0  0  0  0  0  0  0
   -3.9160    0.7453   -0.0000 C   0  0  0  0  0  0  0  0  0  0  0  0
   -3.9278    2.2479   -0.0000 C   0  0  0  0  0  0  0  0  0  0  0  0
   -5.2410    2.9814   -0.0000 C   0  0  0  0  0  0  0  0  0  0  0  0
   -6.5188    2.2479   -0.0000 C   0  0  0  0  0  0  0  0  0  0  0  0
   -7.8320    2.9814   -0.0000 C   0  0  0  0  0  0  0  0  0  0  0  0
   -9.1334    2.2479   -0.0000 N   0  0  0  0  0  0  0  0  0  0  0  0
  -10.4348    2.9932   -0.0000 C   0  0  0  0  0  0  0  0  0  0  0  0
   -9.1216    0.7690   -0.0000 C   0  0  0  0  0  0  0  0  0  0  0  0
  -10.4466    4.5075   -0.0000 N   0  0  0  0  0  0  0  0  0  0  0  0
  -11.7362    2.2597   -0.0000 N   0  0  0  0  0  0  0  0  0  0  0  0
  -11.7480    5.2647   -0.0000 C   0  0  0  0  0  0  0  0  0  0  0  0
  -13.0376    3.0169   -0.0000 C   0  0  0  0  0  0  0  0  0  0  0  0
  -13.0494    4.5194   -0.0000 N   0  0  0  0  0  0  0  0  0  0  0  0
  -11.7480    6.7672   -0.0000 N   0  0  0  0  0  0  0  0  0  0  0  0
  -14.3508    2.2833   -0.0000 N   0  0  0  0  0  0  0  0  0  0  0  0
  -10.4584    7.5126   -0.0000 C   0  0  0  0  0  0  0  0  0  0  0  0
  -13.0494    7.5126   -0.0000 C   0  0  0  0  0  0  0  0  0  0  0  0
  -15.6522    3.0405   -0.0000 C   0  0  0  0  0  0  0  0  0  0  0  0
  -10.4703    9.0032   -0.0000 C   0  0  0  0  0  0  0  0  0  0  0  0
  -13.0612    9.0151   -0.0000 C   0  0  0  0  0  0  0  0  0  0  0  0
  -16.9536    2.3070   -0.0000 C   0  0  0  0  0  0  0  0  0  0  0  0
  -11.7717    9.7722   -0.0000 N   0  0  0  0  0  0  0  0  0  0  0  0
   -9.1925    9.7604   -0.0000 C   0  0  0  0  0  0  0  0  0  0  0  0
  -14.3626    9.7841   -0.0000 C   0  0  0  0  0  0  0  0  0  0  0  0
  -18.2549    3.0642   -0.0000 C   0  0  0  0  0  0  0  0  0  0  0  0
  -18.2668    4.5785   -0.0000 C   0  0  0  0  0  0  0  0  0  0  0  0
  -19.5563    2.3425   -0.0000 C   0  0  0  0  0  0  0  0  0  0  0  0
  -19.5682    5.3357   -0.0000 C   0  0  0  0  0  0  0  0  0  0  0  0
  -20.8577    3.0878   -0.0000 C   0  0  0  0  0  0  0  0  0  0  0  0
  -20.8695    4.6022   -0.0000 C   0  0  0  0  0  0  0  0  0  0  0  0
  -22.1709    5.3594   -0.0000 O   0  0  0  0  0  0  0  0  0  0  0  0
  1  2  1  0  0  0  0
  2  3  2  0  0  0  0
  2  4  1  0  0  0  0
  3  5  1  0  0  0  0
  4  6  2  0  0  0  0
  5  7  2  0  0  0  0
  7  8  1  0  0  0  0
  8  9  1  0  0  0  0
  9 10  1  0  0  0  0
 10 11  1  0  0  0  0
 11 12  1  0  0  0  0
 11 13  1  0  0  0  0
 12 14  2  0  0  0  0
 12 15  1  0  0  0  0
 14 16  1  0  0  0  0
 15 17  2  0  0  0  0
 16 18  2  0  0  0  0
 16 19  1  0  0  0  0
 17 20  1  0  0  0  0
 19 21  1  0  0  0  0
 19 22  1  0  0  0  0
 20 23  1  0  0  0  0
 21 24  1  0  0  0  0
 22 25  1  0  0  0  0
 23 26  1  0  0  0  0
 24 27  1  0  0  0  0
 24 28  1  1  0  0  0
 25 29  1  1  0  0  0
 26 30  1  0  0  0  0
 30 31  2  0  0  0  0
 30 32  1  0  0  0  0
 31 33  1  0  0  0  0
 32 34  2  0  0  0  0
 33 35  2  0  0  0  0
 35 36  1  0  0  0  0
  6  7  1  0  0  0  0
 17 18  1  0  0  0  0
 25 27  1  0  0  0  0
 34 35  1  0  0  0  0
M  END
>  <MolRegNo>
253183

>  <m>
=

>  <Value>
60

>  <Unit>
nM

>  <Type>
Ki

>  <pValue>
7.22

>  <Ligand Efficiency>
0.27

>  <Binding Efficiency>
14.16

>  <Surface Efficiency>
8.07

>  <Assay Index>
67398

>  <Assay Category>


>  <Assay Organism>


>  <Target ID>
19

>  <Target Name>
Estrogen receptor alpha

>  <Target Organism>
Homo sapiens

>  <Target Description>
Target is a single protein chain

>  <Sequence Accession>
P03372

>  <Reference>
J Med Chem 45 (25), 5492-5505 (2002)

>  <Pubmed ID>
12459017

>  <DOI>
10.1021/jm020291h

$$$$
253333
Actelion Java MolfileCreator 1.0

 41 45  0  0  0  0  0  0  0  0999 V2000
    0.0000   -0.0000   -0.0000 Cl  0  0  0  0  0  0  0  0  0  0  0  0
   -1.3051    0.7474   -0.0000 C   0  0  0  0  0  0  0  0  0  0  0  0
   -1.3406    2.2661   -0.0000 C   0  0  0  0  0  0  0  0  0  0  0  0
   -2.6220   -0.0000   -0.0000 C   0  0  0  0  0  0  0  0  0  0  0  0
   -2.6576    3.0016   -0.0000 C   0  0  0  0  0  0  0  0  0  0  0  0
   -3.9270    0.7474   -0.0000 C   0  0  0  0  0  0  0  0  0  0  0  0
   -3.9389    2.2542   -0.0000 C   0  0  0  0  0  0  0  0  0  0  0  0
   -5.2558    3.0016   -0.0000 C   0  0  0  0  0  0  0  0  0  0  0  0
   -6.5371    2.2542   -0.0000 C   0  0  0  0  0  0  0  0  0  0  0  0
   -7.8541    3.0016   -0.0000 C   0  0  0  0  0  0  0  0  0  0  0  0
   -9.1591    2.2542   -0.0000 N   0  0  0  0  0  0  0  0  0  0  0  0
  -10.4642    3.0016   -0.0000 C   0  0  0  0  0  0  0  0  0  0  0  0
   -9.1473    0.7712   -0.0000 C   0  0  0  0  0  0  0  0  0  0  0  0
  -10.4760    4.5084   -0.0000 N   0  0  0  0  0  0  0  0  0  0  0  0
  -11.7692    2.2661   -0.0000 N   0  0  0  0  0  0  0  0  0  0  0  0
  -11.7811    5.2677   -0.0000 C   0  0  0  0  0  0  0  0  0  0  0  0
  -13.0743    3.0254   -0.0000 C   0  0  0  0  0  0  0  0  0  0  0  0
  -13.0861    4.5321   -0.0000 N   0  0  0  0  0  0  0  0  0  0  0  0
  -11.8048    6.7626   -0.0000 N   0  0  0  0  0  0  0  0  0  0  0  0
  -14.3912    2.2898   -0.0000 N   0  0  0  0  0  0  0  0  0  0  0  0
  -10.5116    7.5219   -0.0000 C   0  0  0  0  0  0  0  0  0  0  0  0
  -13.0861    7.5219   -0.0000 C   0  0  0  0  0  0  0  0  0  0  0  0
  -15.6963    3.0491   -0.0000 C   0  0  0  0  0  0  0  0  0  0  0  0
  -10.5235    9.0049   -0.0000 C   0  0  0  0  0  0  0  0  0  0  0  0
  -13.0861    9.0286   -0.0000 C   0  0  0  0  0  0  0  0  0  0  0  0
  -17.0013    2.3135   -0.0000 C   0  0  0  0  0  0  0  0  0  0  0  0
  -11.8286    9.7761   -0.0000 N   0  0  0  0  0  0  0  0  0  0  0  0
  -18.3064    3.0728   -0.0000 C   0  0  0  0  0  0  0  0  0  0  0  0
  -11.8286   11.2828   -0.0000 C   0  0  0  0  0  0  0  0  0  0  0  0
  -18.3182    4.5796   -0.0000 C   0  0  0  0  0  0  0  0  0  0  0  0
  -19.6114    2.3491   -0.0000 C   0  0  0  0  0  0  0  0  0  0  0  0
  -10.5472   12.0302   -0.0000 C   0  0  0  0  0  0  0  0  0  0  0  0
  -19.6233    5.3389   -0.0000 C   0  0  0  0  0  0  0  0  0  0  0  0
  -20.9165    3.0965   -0.0000 C   0  0  0  0  0  0  0  0  0  0  0  0
  -10.5591   13.5251   -0.0000 C   0  0  0  0  0  0  0  0  0  0  0  0
   -9.2778   11.2828   -0.0000 C   0  0  0  0  0  0  0  0  0  0  0  0
  -20.9283    4.6033   -0.0000 C   0  0  0  0  0  0  0  0  0  0  0  0
   -9.2778   14.2844   -0.0000 C   0  0  0  0  0  0  0  0  0  0  0  0
   -7.9964   12.0421   -0.0000 C   0  0  0  0  0  0  0  0  0  0  0  0
  -22.2334    5.3626   -0.0000 O   0  0  0  0  0  0  0  0  0  0  0  0
   -7.9964   13.5489   -0.0000 C   0  0  0  0  0  0  0  0  0  0  0  0
  1  2  1  0  0  0  0
  2  3  2  0  0  0  0
  2  4  1  0  0  0  0
  3  5  1  0  0  0  0
  4  6  2  0  0  0  0
  5  7  2  0  0  0  0
  7  8  1  0  0  0  0
  8  9  1  0  0  0  0
  9 10  1  0  0  0  0
 10 11  1  0  0  0  0
 11 12  1  0  0  0  0
 11 13  1  0  0  0  0
 12 14  2  0  0  0  0
 12 15  1  0  0  0  0
 14 16  1  0  0  0  0
 15 17  2  0  0  0  0
 16 18  2  0  0  0  0
 16 19  1  0  0  0  0
 17 20  1  0  0  0  0
 19 21  1  0  0  0  0
 19 22  1  0  0  0  0
 20 23  1  0  0  0  0
 21 24  1  0  0  0  0
 22 25  1  0  0  0  0
 23 26  1  0  0  0  0
 24 27  1  0  0  0  0
 26 28  1  0  0  0  0
 27 29  1  0  0  0  0
 28 30  2  0  0  0  0
 28 31  1  0  0  0  0
 29 32  1  0  0  0  0
 30 33  1  0  0  0  0
 31 34  2  0  0  0  0
 32 35  2  0  0  0  0
 32 36  1  0  0  0  0
 33 37  2  0  0  0  0
 35 38  1  0  0  0  0
 36 39  2  0  0  0  0
 37 40  1  0  0  0  0
 38 41  2  0  0  0  0
  6  7  1  0  0  0  0
 17 18  1  0  0  0  0
 25 27  1  0  0  0  0
 34 37  1  0  0  0  0
 39 41  1  0  0  0  0
M  END
>  <MolRegNo>
253333

>  <m>
=

>  <Value>
120

>  <Unit>
nM

>  <Type>
Ki

>  <pValue>
6.92

>  <Ligand Efficiency>
0.23

>  <Binding Efficiency>
12.1

>  <Surface Efficiency>
8.58

>  <Assay Index>
67398

>  <Assay Category>


>  <Assay Organism>


>  <Target ID>
19

>  <Target Name>
Estrogen receptor alpha

>  <Target Organism>
Homo sapiens

>  <Target Description>
Target is a single protein chain

>  <Sequence Accession>
P03372

>  <Reference>
J Med Chem 45 (25), 5492-5505 (2002)

>  <Pubmed ID>
12459017

>  <DOI>
10.1021/jm020291h

$$$$
215739
Actelion Java MolfileCreator 1.0

 23 25  0  0  0  0  0  0  0  0999 V2000
    0.0000   -0.0000   -0.0000 O   0  0  0  0  0  0  0  0  0  0  0  0
    1.2845    0.7612   -0.0000 N   0  0  0  0  0  0  0  0  0  0  0  0
    2.5689    0.0238   -0.0000 C   0  0  0  0  0  0  0  0  0  0  0  0
    3.8534    0.7850   -0.0000 C   0  0  0  0  0  0  0  0  0  0  0  0
    3.8415    2.2954   -0.0000 C   0  0  0  0  0  0  0  0  0  0  0  0
    5.1379    0.0476   -0.0000 C   0  0  0  0  0  0  0  0  0  0  0  0
    2.5333    3.0566   -0.0000 N   0  0  0  0  0  0  0  0  0  0  0  0
    5.1260    3.0566   -0.0000 C   0  0  0  0  0  0  0  0  0  0  0  0
    6.4342    0.8087   -0.0000 C   0  0  0  0  0  0  0  0  0  0  0  0
    2.5214    4.5670   -0.0000 C   0  0  0  0  0  0  0  0  0  0  0  0
    6.4223    2.3192   -0.0000 C   0  0  0  0  0  0  0  0  0  0  0  0
    5.1141    4.5670   -0.0000 C   0  0  0  0  0  0  0  0  0  0  0  0
    7.6830    3.0922   -0.0000 C   0  0  0  0  0  0  0  0  0  0  0  0
    3.8058    5.3163   -0.0000 C   0  0  0  0  0  0  0  0  0  0  0  0
    6.3986    5.3282   -0.0000 C   0  0  0  0  0  0  0  0  0  0  0  0
    8.9794    2.3549   -0.0000 C   0  0  0  0  0  0  0  0  0  0  0  0
    7.6711    4.5908   -0.0000 C   0  0  0  0  0  0  0  0  0  0  0  0
    3.7702    6.8148   -0.0000 C   0  0  0  0  0  0  0  0  0  0  0  0
    6.3867    6.8386   -0.0000 C   0  0  0  0  0  0  0  0  0  0  0  0
   10.2638    3.1160   -0.0000 C   0  0  0  0  0  0  0  0  0  0  0  0
    8.9437    5.3638   -0.0000 C   0  0  0  0  0  0  0  0  0  0  0  0
    5.0665    7.5998   -0.0000 C   0  0  0  0  0  0  0  0  0  0  0  0
   10.2401    4.6384   -0.0000 C   0  0  0  0  0  0  0  0  0  0  0  0
  1  2  1  0  0  0  0
  2  3  2  0  0  0  0
  3  4  1  0  0  0  0
  4  5  2  0  0  0  0
  4  6  1  0  0  0  0
  5  7  1  0  0  0  0
  5  8  1  0  0  0  0
  6  9  2  0  0  0  0
  7 10  1  0  0  0  0
  8 11  2  0  0  0  0
  8 12  1  0  0  0  0
 11 13  1  0  0  0  0
 12 14  2  0  0  0  0
 12 15  1  0  0  0  0
 13 16  2  0  0  0  0
 13 17  1  0  0  0  0
 14 18  1  0  0  0  0
 15 19  2  0  0  0  0
 16 20  1  0  0  0  0
 17 21  2  0  0  0  0
 18 22  2  0  0  0  0
 20 23  2  0  0  0  0
  9 11  1  0  0  0  0
 19 22  1  0  0  0  0
 21 23  1  0  0  0  0
M  END
>  <MolRegNo>
215739

>  <m>
=

>  <Value>
3.7

>  <Unit>
nM

>  <Type>
Ki

>  <pValue>
8.43

>  <Ligand Efficiency>
0.5

>  <Binding Efficiency>
27.88

>  <Surface Efficiency>
18.9

>  <Assay Index>
66920

>  <Assay Category>


>  <Assay Organism>
Homo sapiens

>  <Target ID>
19

>  <Target Name>
Estrogen receptor alpha

>  <Target Organism>
Homo sapiens

>  <Target Description>
Target is a single protein chain

>  <Sequence Accession>
P03372

>  <Reference>
J Med Chem 46 (19), 4032-4042 (2003)

>  <Pubmed ID>
12954056

>  <DOI>
10.1021/jm0308390

$$$$
215700
Actelion Java MolfileCreator 1.0

 22 24  0  0  0  0  0  0  0  0999 V2000
    0.0000   -0.0000   -0.0000 O   0  0  0  0  0  0  0  0  0  0  0  0
    1.2838    0.7608   -0.0000 N   0  0  0  0  0  0  0  0  0  0  0  0
    1.2719    2.2704   -0.0000 C   0  0  0  0  0  0  0  0  0  0  0  0
    2.5557    3.0312   -0.0000 C   0  0  0  0  0  0  0  0  0  0  0  0
    2.5438    4.5408   -0.0000 C   0  0  0  0  0  0  0  0  0  0  0  0
    3.8395    2.2942   -0.0000 C   0  0  0  0  0  0  0  0  0  0  0  0
    1.2362    5.3016   -0.0000 O   0  0  0  0  0  0  0  0  0  0  0  0
    3.8276    5.3016   -0.0000 C   0  0  0  0  0  0  0  0  0  0  0  0
    5.1352    3.0550   -0.0000 C   0  0  0  0  0  0  0  0  0  0  0  0
    5.1233    4.5646   -0.0000 C   0  0  0  0  0  0  0  0  0  0  0  0
    3.8157    6.8113   -0.0000 C   0  0  0  0  0  0  0  0  0  0  0  0
    6.3833    5.3373   -0.0000 C   0  0  0  0  0  0  0  0  0  0  0  0
    5.0995    7.5720   -0.0000 C   0  0  0  0  0  0  0  0  0  0  0  0
    2.5082    7.5601   -0.0000 C   0  0  0  0  0  0  0  0  0  0  0  0
    7.6790    4.6003   -0.0000 C   0  0  0  0  0  0  0  0  0  0  0  0
    6.3714    6.8350   -0.0000 C   0  0  0  0  0  0  0  0  0  0  0  0
    5.0876    9.0817   -0.0000 C   0  0  0  0  0  0  0  0  0  0  0  0
    2.4725    9.0579   -0.0000 C   0  0  0  0  0  0  0  0  0  0  0  0
    8.9628    5.3610   -0.0000 C   0  0  0  0  0  0  0  0  0  0  0  0
    7.6433    7.6077   -0.0000 C   0  0  0  0  0  0  0  0  0  0  0  0
    3.7801    9.8424   -0.0000 C   0  0  0  0  0  0  0  0  0  0  0  0
    8.9390    6.8826   -0.0000 C   0  0  0  0  0  0  0  0  0  0  0  0
  1  2  1  0  0  0  0
  2  3  2  0  0  0  0
  3  4  1  0  0  0  0
  4  5  2  0  0  0  0
  4  6  1  0  0  0  0
  5  7  1  0  0  0  0
  5  8  1  0  0  0  0
  6  9  2  0  0  0  0
  8 10  2  0  0  0  0
  8 11  1  0  0  0  0
 10 12  1  0  0  0  0
 11 13  2  0  0  0  0
 11 14  1  0  0  0  0
 12 15  2  0  0  0  0
 12 16  1  0  0  0  0
 13 17  1  0  0  0  0
 14 18  2  0  0  0  0
 15 19  1  0  0  0  0
 16 20  2  0  0  0  0
 17 21  2  0  0  0  0
 19 22  2  0  0  0  0
  9 10  1  0  0  0  0
 18 21  1  0  0  0  0
 20 22  1  0  0  0  0
M  END
>  <MolRegNo>
215700

>  <m>
=

>  <Value>
1.1

>  <Unit>
nM

>  <Type>
Ki

>  <pValue>
8.96

>  <Ligand Efficiency>
0.56

>  <Binding Efficiency>
30.96

>  <Surface Efficiency>
16.96

>  <Assay Index>
66920

>  <Assay Category>


>  <Assay Organism>
Homo sapiens

>  <Target ID>
19

>  <Target Name>
Estrogen receptor alpha

>  <Target Organism>
Homo sapiens

>  <Target Description>
Target is a single protein chain

>  <Sequence Accession>
P03372

>  <Reference>
J Med Chem 46 (19), 4032-4042 (2003)

>  <Pubmed ID>
12954056

>  <DOI>
10.1021/jm0308390

$$$$
215899
Actelion Java MolfileCreator 1.0

 24 26  0  0  0  0  0  0  0  0999 V2000
    0.0000   -0.0000   -0.0000 O   0  0  0  0  0  0  0  0  0  0  0  0
    1.2840    0.7609   -0.0000 N   0  0  0  0  0  0  0  0  0  0  0  0
    2.5680    0.0238   -0.0000 C   0  0  0  0  0  0  0  0  0  0  0  0
    3.8521    0.7847   -0.0000 C   0  0  0  0  0  0  0  0  0  0  0  0
    3.8402    2.2946   -0.0000 C   0  0  0  0  0  0  0  0  0  0  0  0
    5.1361    0.0476   -0.0000 C   0  0  0  0  0  0  0  0  0  0  0  0
    2.5324    3.0555   -0.0000 N   0  0  0  0  0  0  0  0  0  0  0  0
    5.1242    3.0555   -0.0000 C   0  0  0  0  0  0  0  0  0  0  0  0
    6.4320    0.8085   -0.0000 C   0  0  0  0  0  0  0  0  0  0  0  0
    2.5205    4.5654   -0.0000 C   0  0  0  0  0  0  0  0  0  0  0  0
    6.4201    2.3184   -0.0000 C   0  0  0  0  0  0  0  0  0  0  0  0
    5.1123    4.5654   -0.0000 C   0  0  0  0  0  0  0  0  0  0  0  0
    1.2127    5.3263   -0.0000 C   0  0  0  0  0  0  0  0  0  0  0  0
    7.6804    3.0912   -0.0000 C   0  0  0  0  0  0  0  0  0  0  0  0
    6.3963    5.3263   -0.0000 C   0  0  0  0  0  0  0  0  0  0  0  0
    3.8045    5.3144   -0.0000 C   0  0  0  0  0  0  0  0  0  0  0  0
    8.9763    2.3540   -0.0000 C   0  0  0  0  0  0  0  0  0  0  0  0
    7.6685    4.5892   -0.0000 C   0  0  0  0  0  0  0  0  0  0  0  0
    6.3845    6.8362   -0.0000 C   0  0  0  0  0  0  0  0  0  0  0  0
    3.7688    6.8125   -0.0000 C   0  0  0  0  0  0  0  0  0  0  0  0
   10.2603    3.1149   -0.0000 C   0  0  0  0  0  0  0  0  0  0  0  0
    8.9406    5.3620   -0.0000 C   0  0  0  0  0  0  0  0  0  0  0  0
    5.0767    7.5971   -0.0000 C   0  0  0  0  0  0  0  0  0  0  0  0
   10.2365    4.6368   -0.0000 C   0  0  0  0  0  0  0  0  0  0  0  0
  1  2  1  0  0  0  0
  2  3  2  0  0  0  0
  3  4  1  0  0  0  0
  4  5  2  0  0  0  0
  4  6  1  0  0  0  0
  5  7  1  0  0  0  0
  5  8  1  0  0  0  0
  6  9  2  0  0  0  0
  7 10  1  0  0  0  0
  8 11  2  0  0  0  0
  8 12  1  0  0  0  0
 10 13  1  0  0  0  0
 11 14  1  0  0  0  0
 12 15  2  0  0  0  0
 12 16  1  0  0  0  0
 14 17  2  0  0  0  0
 14 18  1  0  0  0  0
 15 19  1  0  0  0  0
 16 20  2  0  0  0  0
 17 21  1  0  0  0  0
 18 22  2  0  0  0  0
 19 23  2  0  0  0  0
 21 24  2  0  0  0  0
  9 11  1  0  0  0  0
 20 23  1  0  0  0  0
 22 24  1  0  0  0  0
M  END
>  <MolRegNo>
215899

>  <m>
=

>  <Value>
0.47

>  <Unit>
nM

>  <Type>
Ki

>  <pValue>
9.33

>  <Ligand Efficiency>
0.53

>  <Binding Efficiency>
29.48

>  <Surface Efficiency>
20.91

>  <Assay Index>
66920

>  <Assay Category>


>  <Assay Organism>
Homo sapiens

>  <Target ID>
19

>  <Target Name>
Estrogen receptor alpha

>  <Target Organism>
Homo sapiens

>  <Target Description>
Target is a single protein chain

>  <Sequence Accession>
P03372

>  <Reference>
J Med Chem 46 (19), 4032-4042 (2003)

>  <Pubmed ID>
12954056

>  <DOI>
10.1021/jm0308390

$$$$
215371
Actelion Java MolfileCreator 1.0

 22 24  0  0  0  0  0  0  0  0999 V2000
    0.0000   -0.0000   -0.0000 O   0  0  0  0  0  0  0  0  0  0  0  0
    1.2870    0.7557   -0.0000 N   0  0  0  0  0  0  0  0  0  0  0  0
    2.5741    0.0118   -0.0000 C   0  0  0  0  0  0  0  0  0  0  0  0
    3.8611    0.7675   -0.0000 C   0  0  0  0  0  0  0  0  0  0  0  0
    3.8493    2.2789   -0.0000 C   0  0  0  0  0  0  0  0  0  0  0  0
    5.1481    0.0236   -0.0000 C   0  0  0  0  0  0  0  0  0  0  0  0
    2.5386    3.0346   -0.0000 N   0  0  0  0  0  0  0  0  0  0  0  0
    5.1363    3.0346   -0.0000 C   0  0  0  0  0  0  0  0  0  0  0  0
    6.4470    0.7793   -0.0000 C   0  0  0  0  0  0  0  0  0  0  0  0
    6.4351    2.3025   -0.0000 C   0  0  0  0  0  0  0  0  0  0  0  0
    5.1245    4.5459   -0.0000 C   0  0  0  0  0  0  0  0  0  0  0  0
    7.6986    3.0700   -0.0000 C   0  0  0  0  0  0  0  0  0  0  0  0
    3.8139    5.2898   -0.0000 C   0  0  0  0  0  0  0  0  0  0  0  0
    6.4115    5.3016   -0.0000 C   0  0  0  0  0  0  0  0  0  0  0  0
    7.6868    4.5695   -0.0000 C   0  0  0  0  0  0  0  0  0  0  0  0
    8.9974    2.3379   -0.0000 C   0  0  0  0  0  0  0  0  0  0  0  0
    3.7784    6.7894   -0.0000 C   0  0  0  0  0  0  0  0  0  0  0  0
    6.3997    6.8130   -0.0000 C   0  0  0  0  0  0  0  0  0  0  0  0
    8.9620    5.3370   -0.0000 C   0  0  0  0  0  0  0  0  0  0  0  0
   10.2844    3.0936   -0.0000 C   0  0  0  0  0  0  0  0  0  0  0  0
    5.0773    7.5687   -0.0000 C   0  0  0  0  0  0  0  0  0  0  0  0
   10.2490    4.6168   -0.0000 C   0  0  0  0  0  0  0  0  0  0  0  0
  1  2  1  0  0  0  0
  2  3  2  0  0  0  0
  3  4  1  0  0  0  0
  4  5  2  0  0  0  0
  4  6  1  0  0  0  0
  5  7  1  0  0  0  0
  5  8  1  0  0  0  0
  6  9  2  0  0  0  0
  8 10  2  0  0  0  0
  8 11  1  0  0  0  0
 10 12  1  0  0  0  0
 11 13  2  0  0  0  0
 11 14  1  0  0  0  0
 12 15  2  0  0  0  0
 12 16  1  0  0  0  0
 13 17  1  0  0  0  0
 14 18  2  0  0  0  0
 15 19  1  0  0  0  0
 16 20  2  0  0  0  0
 17 21  2  0  0  0  0
 19 22  2  0  0  0  0
  9 10  1  0  0  0  0
 18 21  1  0  0  0  0
 20 22  1  0  0  0  0
M  END
>  <MolRegNo>
215371

>  <m>
=

>  <Value>
2.2

>  <Unit>
nM

>  <Type>
Ki

>  <pValue>
8.66

>  <Ligand Efficiency>
0.54

>  <Binding Efficiency>
30.02

>  <Surface Efficiency>
14.77

>  <Assay Index>
66920

>  <Assay Category>


>  <Assay Organism>
Homo sapiens

>  <Target ID>
19

>  <Target Name>
Estrogen receptor alpha

>  <Target Organism>
Homo sapiens

>  <Target Description>
Target is a single protein chain

>  <Sequence Accession>
P03372

>  <Reference>
J Med Chem 46 (19), 4032-4042 (2003)

>  <Pubmed ID>
12954056

>  <DOI>
10.1021/jm0308390

$$$$
215738
Actelion Java MolfileCreator 1.0

 21 23  0  0  0  0  0  0  0  0999 V2000
    0.0000   -0.0000   -0.0000 O   0  0  0  0  0  0  0  0  0  0  0  0
    1.2854    0.7617   -0.0000 N   0  0  0  0  0  0  0  0  0  0  0  0
    2.5707    0.0238   -0.0000 C   0  0  0  0  0  0  0  0  0  0  0  0
    3.8561    0.7855   -0.0000 C   0  0  0  0  0  0  0  0  0  0  0  0
    3.8442    2.2970   -0.0000 C   0  0  0  0  0  0  0  0  0  0  0  0
    5.1415    0.0476   -0.0000 C   0  0  0  0  0  0  0  0  0  0  0  0
    5.1296    3.0587   -0.0000 C   0  0  0  0  0  0  0  0  0  0  0  0
    6.4387    0.8093   -0.0000 C   0  0  0  0  0  0  0  0  0  0  0  0
    6.4268    2.3208   -0.0000 C   0  0  0  0  0  0  0  0  0  0  0  0
    5.1177    4.5702   -0.0000 C   0  0  0  0  0  0  0  0  0  0  0  0
    7.6884    3.0944   -0.0000 C   0  0  0  0  0  0  0  0  0  0  0  0
    3.8085    5.3200   -0.0000 C   0  0  0  0  0  0  0  0  0  0  0  0
    6.4030    5.3319   -0.0000 C   0  0  0  0  0  0  0  0  0  0  0  0
    8.9856    2.3565   -0.0000 C   0  0  0  0  0  0  0  0  0  0  0  0
    7.6765    4.5940   -0.0000 C   0  0  0  0  0  0  0  0  0  0  0  0
    3.7728    6.8196   -0.0000 C   0  0  0  0  0  0  0  0  0  0  0  0
    6.3911    6.8434   -0.0000 C   0  0  0  0  0  0  0  0  0  0  0  0
   10.2710    3.1182   -0.0000 C   0  0  0  0  0  0  0  0  0  0  0  0
    8.9499    5.3676   -0.0000 C   0  0  0  0  0  0  0  0  0  0  0  0
    5.0700    7.6051   -0.0000 C   0  0  0  0  0  0  0  0  0  0  0  0
   10.2472    4.6416   -0.0000 C   0  0  0  0  0  0  0  0  0  0  0  0
  1  2  1  0  0  0  0
  2  3  2  0  0  0  0
  3  4  1  0  0  0  0
  4  5  2  0  0  0  0
  4  6  1  0  0  0  0
  5  7  1  0  0  0  0
  6  8  2  0  0  0  0
  7  9  2  0  0  0  0
  7 10  1  0  0  0  0
  9 11  1  0  0  0  0
 10 12  2  0  0  0  0
 10 13  1  0  0  0  0
 11 14  2  0  0  0  0
 11 15  1  0  0  0  0
 12 16  1  0  0  0  0
 13 17  2  0  0  0  0
 14 18  1  0  0  0  0
 15 19  2  0  0  0  0
 16 20  2  0  0  0  0
 18 21  2  0  0  0  0
  8  9  1  0  0  0  0
 17 20  1  0  0  0  0
 19 21  1  0  0  0  0
M  END
>  <MolRegNo>
215738

>  <m>
=

>  <Value>
0.15

>  <Unit>
nM

>  <Type>
Ki

>  <pValue>
9.82

>  <Ligand Efficiency>
0.64

>  <Binding Efficiency>
35.94

>  <Surface Efficiency>
30.14

>  <Assay Index>
66920

>  <Assay Category>


>  <Assay Organism>
Homo sapiens

>  <Target ID>
19

>  <Target Name>
Estrogen receptor alpha

>  <Target Organism>
Homo sapiens

>  <Target Description>
Target is a single protein chain

>  <Sequence Accession>
P03372

>  <Reference>
J Med Chem 46 (19), 4032-4042 (2003)

>  <Pubmed ID>
12954056

>  <DOI>
10.1021/jm0308390

$$$$
136112
Actelion Java MolfileCreator 1.0

 37 41  0  0  0  0  0  0  0  0999 V2000
    0.0000   -0.0000   -0.0000 O   0  0  0  0  0  0  0  0  0  0  0  0
    1.2100   -0.8660   -0.0000 C   0  0  0  0  0  0  0  0  0  0  0  0
   -1.2219   -0.8660   -0.0000 C   0  0  0  0  0  0  0  0  0  0  0  0
    2.6335   -0.3796   -0.0000 C   0  0  0  0  0  0  0  0  0  0  0  0
    0.7355   -2.2895   -0.0000 C   0  0  0  0  0  0  0  0  0  0  0  0
   -2.6691   -0.4033   -0.0000 C   0  0  0  0  0  0  0  0  0  0  0  0
   -0.7829   -2.2895   -0.0000 C   0  0  0  0  0  0  0  0  0  0  0  0
    2.9301    1.0914   -0.0000 C   0  0  0  0  0  0  0  0  0  0  0  0
    3.7367   -1.3879   -0.0000 C   0  0  0  0  0  0  0  0  0  0  0  0
    1.6015   -3.4876   -0.0000 C   0  0  0  0  0  0  0  0  0  0  0  0
   -3.0012    1.0795   -0.0000 C   0  0  0  0  0  0  0  0  0  0  0  0
   -3.7960   -1.3998   -0.0000 C   0  0  0  0  0  0  0  0  0  0  0  0
   -1.6726   -3.4995   -0.0000 C   0  0  0  0  0  0  0  0  0  0  0  0
    4.3417    1.5659   -0.0000 C   0  0  0  0  0  0  0  0  0  0  0  0
    5.1602   -0.9016   -0.0000 C   0  0  0  0  0  0  0  0  0  0  0  0
    0.9727   -4.8518   -0.0000 C   0  0  0  0  0  0  0  0  0  0  0  0
    3.0843   -3.3215   -0.0000 C   0  0  0  0  0  0  0  0  0  0  0  0
   -4.4366    1.5540   -0.0000 C   0  0  0  0  0  0  0  0  0  0  0  0
   -5.2314   -0.9371   -0.0000 C   0  0  0  0  0  0  0  0  0  0  0  0
   -1.0795   -4.8518   -0.0000 C   0  0  0  0  0  0  0  0  0  0  0  0
    5.4450    0.5694   -0.0000 C   0  0  0  0  0  0  0  0  0  0  0  0
    1.8506   -6.0499   -0.0000 C   0  0  0  0  0  0  0  0  0  0  0  0
    3.9621   -4.5197   -0.0000 C   0  0  0  0  0  0  0  0  0  0  0  0
   -5.5636    0.5575   -0.0000 C   0  0  0  0  0  0  0  0  0  0  0  0
   -1.9692   -6.0618   -0.0000 C   0  0  0  0  0  0  0  0  0  0  0  0
    6.8685    1.0439   -0.0000 O   0  0  0  0  0  0  0  0  0  0  0  0
    3.3334   -5.8839   -0.0000 C   0  0  0  0  0  0  0  0  0  0  0  0
   -7.0108    1.0202   -0.0000 O   0  0  0  0  0  0  0  0  0  0  0  0
    4.1994   -7.0939   -0.0000 O   0  0  0  0  0  0  0  0  0  0  0  0
    5.6941   -6.9278   -0.0000 C   0  0  0  0  0  0  0  0  0  0  0  0
    6.2991   -5.5399   -0.0000 C   0  0  0  0  0  0  0  0  0  0  0  0
    7.7819   -5.3738   -0.0000 N   0  0  0  0  0  0  0  0  0  0  0  0
    8.6479   -6.5838   -0.0000 C   0  0  0  0  0  0  0  0  0  0  0  0
    8.3750   -3.9977   -0.0000 C   0  0  0  0  0  0  0  0  0  0  0  0
   10.1307   -6.4296   -0.0000 C   0  0  0  0  0  0  0  0  0  0  0  0
    9.8697   -3.8316   -0.0000 C   0  0  0  0  0  0  0  0  0  0  0  0
   10.7476   -5.0535   -0.0000 C   0  0  0  0  0  0  0  0  0  0  0  0
  1  2  1  0  0  0  0
  1  3  1  0  0  0  0
  2  4  1  0  0  0  0
  2  5  2  0  0  0  0
  3  6  1  0  0  0  0
  3  7  2  0  0  0  0
  4  8  2  0  0  0  0
  4  9  1  0  0  0  0
  5 10  1  0  0  0  0
  6 11  2  0  0  0  0
  6 12  1  0  0  0  0
  7 13  1  0  0  0  0
  8 14  1  0  0  0  0
  9 15  2  0  0  0  0
 10 16  2  0  0  0  0
 10 17  1  0  0  0  0
 11 18  1  0  0  0  0
 12 19  2  0  0  0  0
 13 20  1  0  0  0  0
 14 21  2  0  0  0  0
 16 22  1  0  0  0  0
 17 23  2  0  0  0  0
 18 24  2  0  0  0  0
 20 25  1  0  0  0  0
 21 26  1  0  0  0  0
 22 27  2  0  0  0  0
 24 28  1  0  0  0  0
 27 29  1  0  0  0  0
 29 30  1  0  0  0  0
 30 31  1  0  0  0  0
 31 32  1  0  0  0  0
 32 33  1  0  0  0  0
 32 34  1  0  0  0  0
 33 35  1  0  0  0  0
 34 36  1  0  0  0  0
 35 37  1  0  0  0  0
  5  7  1  0  0  0  0
 15 21  1  0  0  0  0
 19 24  1  0  0  0  0
 23 27  1  0  0  0  0
 36 37  1  0  0  0  0
M  END
>  <MolRegNo>
136112

>  <m>
=

>  <Value>
34

>  <Unit>
nM

>  <Type>
Ki

>  <pValue>
7.47

>  <Ligand Efficiency>
0.28

>  <Binding Efficiency>
15.01

>  <Surface Efficiency>
11.3

>  <Assay Index>
67397

>  <Assay Category>


>  <Assay Organism>
Homo sapiens

>  <Target ID>
19

>  <Target Name>
Estrogen receptor alpha

>  <Target Organism>
Homo sapiens

>  <Target Description>
Target is a single protein chain

>  <Sequence Accession>
P03372

>  <Reference>
Bioorg Med Chem Lett 11 (18), 2521-2524 (2001)

>  <Pubmed ID>
11549460

>  <DOI>
10.1016/s0960-894x(01)00488-7

$$$$
136141
Actelion Java MolfileCreator 1.0

 36 40  0  0  0  0  0  0  0  0999 V2000
    0.0000   -0.0000   -0.0000 O   0  0  0  0  0  0  0  0  0  0  0  0
    1.2100   -0.8660   -0.0000 C   0  0  0  0  0  0  0  0  0  0  0  0
   -1.2219   -0.8660   -0.0000 C   0  0  0  0  0  0  0  0  0  0  0  0
    2.6336   -0.3796   -0.0000 C   0  0  0  0  0  0  0  0  0  0  0  0
    0.7355   -2.2896   -0.0000 C   0  0  0  0  0  0  0  0  0  0  0  0
   -2.6692   -0.4033   -0.0000 C   0  0  0  0  0  0  0  0  0  0  0  0
   -0.7830   -2.2896   -0.0000 C   0  0  0  0  0  0  0  0  0  0  0  0
    2.9302    1.0914   -0.0000 C   0  0  0  0  0  0  0  0  0  0  0  0
    3.7368   -1.3880   -0.0000 C   0  0  0  0  0  0  0  0  0  0  0  0
    1.6015   -3.4877   -0.0000 C   0  0  0  0  0  0  0  0  0  0  0  0
   -3.0013    1.0795   -0.0000 C   0  0  0  0  0  0  0  0  0  0  0  0
   -3.7962   -1.3998   -0.0000 C   0  0  0  0  0  0  0  0  0  0  0  0
   -1.6727   -3.4996   -0.0000 C   0  0  0  0  0  0  0  0  0  0  0  0
    4.3419    1.5659   -0.0000 C   0  0  0  0  0  0  0  0  0  0  0  0
    5.1604   -0.9016   -0.0000 C   0  0  0  0  0  0  0  0  0  0  0  0
    0.9728   -4.8520   -0.0000 C   0  0  0  0  0  0  0  0  0  0  0  0
    3.0844   -3.3216   -0.0000 C   0  0  0  0  0  0  0  0  0  0  0  0
   -4.4368    1.5541   -0.0000 C   0  0  0  0  0  0  0  0  0  0  0  0
   -5.2316   -0.9372   -0.0000 C   0  0  0  0  0  0  0  0  0  0  0  0
   -1.0795   -4.8520   -0.0000 C   0  0  0  0  0  0  0  0  0  0  0  0
    5.4451    0.5694   -0.0000 C   0  0  0  0  0  0  0  0  0  0  0  0
    1.8506   -6.0501   -0.0000 C   0  0  0  0  0  0  0  0  0  0  0  0
    3.9622   -4.5198   -0.0000 C   0  0  0  0  0  0  0  0  0  0  0  0
   -5.5638    0.5576   -0.0000 C   0  0  0  0  0  0  0  0  0  0  0  0
    6.8687    1.0439   -0.0000 O   0  0  0  0  0  0  0  0  0  0  0  0
    3.3335   -5.8841   -0.0000 C   0  0  0  0  0  0  0  0  0  0  0  0
   -7.0110    1.0202   -0.0000 O   0  0  0  0  0  0  0  0  0  0  0  0
    4.1995   -7.0941   -0.0000 O   0  0  0  0  0  0  0  0  0  0  0  0
    5.6942   -6.9280   -0.0000 C   0  0  0  0  0  0  0  0  0  0  0  0
    6.2993   -5.5400   -0.0000 C   0  0  0  0  0  0  0  0  0  0  0  0
    7.7821   -5.3739   -0.0000 N   0  0  0  0  0  0  0  0  0  0  0  0
    8.6481   -6.5840   -0.0000 C   0  0  0  0  0  0  0  0  0  0  0  0
    8.3753   -3.9978   -0.0000 C   0  0  0  0  0  0  0  0  0  0  0  0
   10.1310   -6.4298   -0.0000 C   0  0  0  0  0  0  0  0  0  0  0  0
    9.8700   -3.8318   -0.0000 C   0  0  0  0  0  0  0  0  0  0  0  0
   10.7479   -5.0536   -0.0000 C   0  0  0  0  0  0  0  0  0  0  0  0
  1  2  1  0  0  0  0
  1  3  1  0  0  0  0
  2  4  1  0  0  0  0
  2  5  2  0  0  0  0
  3  6  1  0  0  0  0
  3  7  2  0  0  0  0
  4  8  2  0  0  0  0
  4  9  1  0  0  0  0
  5 10  1  0  0  0  0
  6 11  2  0  0  0  0
  6 12  1  0  0  0  0
  7 13  1  0  0  0  0
  8 14  1  0  0  0  0
  9 15  2  0  0  0  0
 10 16  2  0  0  0  0
 10 17  1  0  0  0  0
 11 18  1  0  0  0  0
 12 19  2  0  0  0  0
 13 20  1  0  0  0  0
 14 21  2  0  0  0  0
 16 22  1  0  0  0  0
 17 23  2  0  0  0  0
 18 24  2  0  0  0  0
 21 25  1  0  0  0  0
 22 26  2  0  0  0  0
 24 27  1  0  0  0  0
 26 28  1  0  0  0  0
 28 29  1  0  0  0  0
 29 30  1  0  0  0  0
 30 31  1  0  0  0  0
 31 32  1  0  0  0  0
 31 33  1  0  0  0  0
 32 34  1  0  0  0  0
 33 35  1  0  0  0  0
 34 36  1  0  0  0  0
  5  7  1  0  0  0  0
 15 21  1  0  0  0  0
 19 24  1  0  0  0  0
 23 26  1  0  0  0  0
 35 36  1  0  0  0  0
M  END
>  <MolRegNo>
136141

>  <m>
=

>  <Value>
75

>  <Unit>
nM

>  <Type>
Ki

>  <pValue>
7.12

>  <Ligand Efficiency>
0.27

>  <Binding Efficiency>
14.73

>  <Surface Efficiency>
10.78

>  <Assay Index>
67397

>  <Assay Category>


>  <Assay Organism>
Homo sapiens

>  <Target ID>
19

>  <Target Name>
Estrogen receptor alpha

>  <Target Organism>
Homo sapiens

>  <Target Description>
Target is a single protein chain

>  <Sequence Accession>
P03372

>  <Reference>
Bioorg Med Chem Lett 11 (18), 2521-2524 (2001)

>  <Pubmed ID>
11549460

>  <DOI>
10.1016/s0960-894x(01)00488-7

$$$$
136108
Actelion Java MolfileCreator 1.0

 29 32  0  0  0  0  0  0  0  0999 V2000
    0.0000   -0.0000   -0.0000 O   0  0  0  0  0  0  0  0  0  0  0  0
    1.2100   -0.8660   -0.0000 C   0  0  0  0  0  0  0  0  0  0  0  0
   -1.2219   -0.8660   -0.0000 C   0  0  0  0  0  0  0  0  0  0  0  0
    2.6336   -0.3796   -0.0000 C   0  0  0  0  0  0  0  0  0  0  0  0
    0.7355   -2.2896   -0.0000 C   0  0  0  0  0  0  0  0  0  0  0  0
   -2.6692   -0.4033   -0.0000 C   0  0  0  0  0  0  0  0  0  0  0  0
   -0.7830   -2.2896   -0.0000 C   0  0  0  0  0  0  0  0  0  0  0  0
    2.9302    1.0914   -0.0000 C   0  0  0  0  0  0  0  0  0  0  0  0
    3.7369   -1.3880   -0.0000 C   0  0  0  0  0  0  0  0  0  0  0  0
    1.6015   -3.4877   -0.0000 C   0  0  0  0  0  0  0  0  0  0  0  0
   -3.0014    1.0795   -0.0000 C   0  0  0  0  0  0  0  0  0  0  0  0
   -3.7962   -1.3998   -0.0000 C   0  0  0  0  0  0  0  0  0  0  0  0
   -1.6727   -3.4996   -0.0000 C   0  0  0  0  0  0  0  0  0  0  0  0
    4.3419    1.5659   -0.0000 C   0  0  0  0  0  0  0  0  0  0  0  0
    5.1604   -0.9016   -0.0000 C   0  0  0  0  0  0  0  0  0  0  0  0
    0.9728   -4.8520   -0.0000 C   0  0  0  0  0  0  0  0  0  0  0  0
    3.0844   -3.3217   -0.0000 C   0  0  0  0  0  0  0  0  0  0  0  0
   -4.4368    1.5541   -0.0000 C   0  0  0  0  0  0  0  0  0  0  0  0
   -5.2316   -0.9372   -0.0000 C   0  0  0  0  0  0  0  0  0  0  0  0
   -1.0795   -4.8520   -0.0000 C   0  0  0  0  0  0  0  0  0  0  0  0
    5.4451    0.5694   -0.0000 C   0  0  0  0  0  0  0  0  0  0  0  0
    1.8506   -6.0502   -0.0000 C   0  0  0  0  0  0  0  0  0  0  0  0
    3.9623   -4.5198   -0.0000 C   0  0  0  0  0  0  0  0  0  0  0  0
   -5.5638    0.5576   -0.0000 C   0  0  0  0  0  0  0  0  0  0  0  0
    6.8687    1.0439   -0.0000 O   0  0  0  0  0  0  0  0  0  0  0  0
    3.3335   -5.8841   -0.0000 C   0  0  0  0  0  0  0  0  0  0  0  0
   -7.0111    1.0202   -0.0000 O   0  0  0  0  0  0  0  0  0  0  0  0
    4.1995   -7.0941   -0.0000 O   0  0  0  0  0  0  0  0  0  0  0  0
    5.6943   -6.9280   -0.0000 C   0  0  0  0  0  0  0  0  0  0  0  0
  1  2  1  0  0  0  0
  1  3  1  0  0  0  0
  2  4  1  0  0  0  0
  2  5  2  0  0  0  0
  3  6  1  0  0  0  0
  3  7  2  0  0  0  0
  4  8  2  0  0  0  0
  4  9  1  0  0  0  0
  5 10  1  0  0  0  0
  6 11  2  0  0  0  0
  6 12  1  0  0  0  0
  7 13  1  0  0  0  0
  8 14  1  0  0  0  0
  9 15  2  0  0  0  0
 10 16  2  0  0  0  0
 10 17  1  0  0  0  0
 11 18  1  0  0  0  0
 12 19  2  0  0  0  0
 13 20  1  0  0  0  0
 14 21  2  0  0  0  0
 16 22  1  0  0  0  0
 17 23  2  0  0  0  0
 18 24  2  0  0  0  0
 21 25  1  0  0  0  0
 22 26  2  0  0  0  0
 24 27  1  0  0  0  0
 26 28  1  0  0  0  0
 28 29  1  0  0  0  0
  5  7  1  0  0  0  0
 15 21  1  0  0  0  0
 19 24  1  0  0  0  0
 23 26  1  0  0  0  0
M  END
>  <MolRegNo>
136108

>  <m>
=

>  <Value>
2.5

>  <Unit>
nM

>  <Type>
Ki

>  <pValue>
8.6

>  <Ligand Efficiency>
0.41

>  <Binding Efficiency>
22.26

>  <Surface Efficiency>
13.69

>  <Assay Index>
67397

>  <Assay Category>


>  <Assay Organism>
Homo sapiens

>  <Target ID>
19

>  <Target Name>
Estrogen receptor alpha

>  <Target Organism>
Homo sapiens

>  <Target Description>
Target is a single protein chain

>  <Sequence Accession>
P03372

>  <Reference>
Bioorg Med Chem Lett 11 (18), 2521-2524 (2001)

>  <Pubmed ID>
11549460

>  <DOI>
10.1016/s0960-894x(01)00488-7

$$$$
135049
Actelion Java MolfileCreator 1.0

 35 39  0  0  0  0  0  0  0  0999 V2000
    0.0000   -0.0000   -0.0000 O   0  0  0  0  0  0  0  0  0  0  0  0
    1.2095   -0.8656   -0.0000 C   0  0  0  0  0  0  0  0  0  0  0  0
   -1.2214   -0.8656   -0.0000 C   0  0  0  0  0  0  0  0  0  0  0  0
    2.6325   -0.3795   -0.0000 C   0  0  0  0  0  0  0  0  0  0  0  0
    0.7352   -2.2886   -0.0000 C   0  0  0  0  0  0  0  0  0  0  0  0
   -2.6681   -0.4032   -0.0000 C   0  0  0  0  0  0  0  0  0  0  0  0
   -0.7826   -2.2886   -0.0000 C   0  0  0  0  0  0  0  0  0  0  0  0
    2.9289    1.0909   -0.0000 C   0  0  0  0  0  0  0  0  0  0  0  0
    3.7353   -1.3874   -0.0000 C   0  0  0  0  0  0  0  0  0  0  0  0
    1.6008   -3.4863   -0.0000 C   0  0  0  0  0  0  0  0  0  0  0  0
   -3.0001    1.0791   -0.0000 C   0  0  0  0  0  0  0  0  0  0  0  0
   -3.7946   -1.3992   -0.0000 C   0  0  0  0  0  0  0  0  0  0  0  0
   -1.6720   -3.4981   -0.0000 C   0  0  0  0  0  0  0  0  0  0  0  0
    4.3400    1.5653   -0.0000 C   0  0  0  0  0  0  0  0  0  0  0  0
    5.1583   -0.9012   -0.0000 C   0  0  0  0  0  0  0  0  0  0  0  0
    0.9724   -4.8499   -0.0000 C   0  0  0  0  0  0  0  0  0  0  0  0
    3.0831   -3.3203   -0.0000 C   0  0  0  0  0  0  0  0  0  0  0  0
   -4.4349    1.5534   -0.0000 C   0  0  0  0  0  0  0  0  0  0  0  0
   -5.2294   -0.9368   -0.0000 C   0  0  0  0  0  0  0  0  0  0  0  0
    5.4428    0.5692   -0.0000 C   0  0  0  0  0  0  0  0  0  0  0  0
    1.8499   -6.0476   -0.0000 C   0  0  0  0  0  0  0  0  0  0  0  0
    3.9606   -4.5179   -0.0000 C   0  0  0  0  0  0  0  0  0  0  0  0
   -5.5614    0.5573   -0.0000 C   0  0  0  0  0  0  0  0  0  0  0  0
    6.8658    1.0435   -0.0000 O   0  0  0  0  0  0  0  0  0  0  0  0
    3.3321   -5.8816   -0.0000 C   0  0  0  0  0  0  0  0  0  0  0  0
   -7.0081    1.0198   -0.0000 O   0  0  0  0  0  0  0  0  0  0  0  0
    4.1977   -7.0911   -0.0000 O   0  0  0  0  0  0  0  0  0  0  0  0
    5.6919   -6.9251   -0.0000 C   0  0  0  0  0  0  0  0  0  0  0  0
    6.2966   -5.5377   -0.0000 C   0  0  0  0  0  0  0  0  0  0  0  0
    7.7789   -5.3717   -0.0000 N   0  0  0  0  0  0  0  0  0  0  0  0
    8.3718   -3.9962   -0.0000 C   0  0  0  0  0  0  0  0  0  0  0  0
    8.6445   -6.5812   -0.0000 C   0  0  0  0  0  0  0  0  0  0  0  0
    9.8659   -3.8302   -0.0000 C   0  0  0  0  0  0  0  0  0  0  0  0
   10.1268   -6.4271   -0.0000 C   0  0  0  0  0  0  0  0  0  0  0  0
   10.7434   -5.0397   -0.0000 C   0  0  0  0  0  0  0  0  0  0  0  0
  1  2  1  0  0  0  0
  1  3  1  0  0  0  0
  2  4  1  0  0  0  0
  2  5  2  0  0  0  0
  3  6  1  0  0  0  0
  3  7  2  0  0  0  0
  4  8  2  0  0  0  0
  4  9  1  0  0  0  0
  5 10  1  0  0  0  0
  6 11  2  0  0  0  0
  6 12  1  0  0  0  0
  7 13  1  0  0  0  0
  8 14  1  0  0  0  0
  9 15  2  0  0  0  0
 10 16  2  0  0  0  0
 10 17  1  0  0  0  0
 11 18  1  0  0  0  0
 12 19  2  0  0  0  0
 14 20  2  0  0  0  0
 16 21  1  0  0  0  0
 17 22  2  0  0  0  0
 18 23  2  0  0  0  0
 20 24  1  0  0  0  0
 21 25  2  0  0  0  0
 23 26  1  0  0  0  0
 25 27  1  0  0  0  0
 27 28  1  0  0  0  0
 28 29  1  0  0  0  0
 29 30  1  0  0  0  0
 30 31  1  0  0  0  0
 30 32  1  0  0  0  0
 31 33  1  0  0  0  0
 32 34  1  0  0  0  0
 33 35  1  0  0  0  0
  5  7  1  0  0  0  0
 15 20  1  0  0  0  0
 19 23  1  0  0  0  0
 22 25  1  0  0  0  0
 34 35  1  0  0  0  0
M  END
>  <MolRegNo>
135049

>  <m>
=

>  <Value>
32

>  <Unit>
nM

>  <Type>
Ki

>  <pValue>
7.5

>  <Ligand Efficiency>
0.29

>  <Binding Efficiency>
15.96

>  <Surface Efficiency>
11.34

>  <Assay Index>
67397

>  <Assay Category>


>  <Assay Organism>
Homo sapiens

>  <Target ID>
19

>  <Target Name>
Estrogen receptor alpha

>  <Target Organism>
Homo sapiens

>  <Target Description>
Target is a single protein chain

>  <Sequence Accession>
P03372

>  <Reference>
Bioorg Med Chem Lett 11 (18), 2521-2524 (2001)

>  <Pubmed ID>
11549460

>  <DOI>
10.1016/s0960-894x(01)00488-7

$$$$
136107
Actelion Java MolfileCreator 1.0

 36 40  0  0  0  0  0  0  0  0999 V2000
    0.0000   -0.0000   -0.0000 O   0  0  0  0  0  0  0  0  0  0  0  0
    1.2061   -0.8665   -0.0000 C   0  0  0  0  0  0  0  0  0  0  0  0
   -1.2296   -0.8665   -0.0000 C   0  0  0  0  0  0  0  0  0  0  0  0
    2.6230   -0.3981   -0.0000 C   0  0  0  0  0  0  0  0  0  0  0  0
    0.7260   -2.2835   -0.0000 C   0  0  0  0  0  0  0  0  0  0  0  0
   -2.6582   -0.3981   -0.0000 C   0  0  0  0  0  0  0  0  0  0  0  0
   -0.7729   -2.2835   -0.0000 C   0  0  0  0  0  0  0  0  0  0  0  0
    3.7238   -1.3935   -0.0000 C   0  0  0  0  0  0  0  0  0  0  0  0
    2.9158    1.0773   -0.0000 C   0  0  0  0  0  0  0  0  0  0  0  0
    1.5926   -3.4779   -0.0000 C   0  0  0  0  0  0  0  0  0  0  0  0
   -3.7823   -1.3935   -0.0000 C   0  0  0  0  0  0  0  0  0  0  0  0
   -2.9861    1.0773   -0.0000 C   0  0  0  0  0  0  0  0  0  0  0  0
   -1.6745   -3.4896   -0.0000 C   0  0  0  0  0  0  0  0  0  0  0  0
    5.1290   -0.9251   -0.0000 C   0  0  0  0  0  0  0  0  0  0  0  0
    4.3327    1.5574   -0.0000 C   0  0  0  0  0  0  0  0  0  0  0  0
    0.9719   -4.8480   -0.0000 C   0  0  0  0  0  0  0  0  0  0  0  0
    3.0563   -3.3256   -0.0000 C   0  0  0  0  0  0  0  0  0  0  0  0
   -5.2227   -0.9251   -0.0000 C   0  0  0  0  0  0  0  0  0  0  0  0
   -4.4264    1.5574   -0.0000 C   0  0  0  0  0  0  0  0  0  0  0  0
   -1.0890   -4.8480   -0.0000 C   0  0  0  0  0  0  0  0  0  0  0  0
    5.4335    0.5504   -0.0000 C   0  0  0  0  0  0  0  0  0  0  0  0
    1.8385   -6.0541   -0.0000 C   0  0  0  0  0  0  0  0  0  0  0  0
    3.9346   -4.5201   -0.0000 C   0  0  0  0  0  0  0  0  0  0  0  0
   -5.5506    0.5621   -0.0000 C   0  0  0  0  0  0  0  0  0  0  0  0
    6.8504    1.0305   -0.0000 O   0  0  0  0  0  0  0  0  0  0  0  0
    3.3139   -5.8784   -0.0000 C   0  0  0  0  0  0  0  0  0  0  0  0
   -6.9909    1.0305   -0.0000 O   0  0  0  0  0  0  0  0  0  0  0  0
    4.1922   -7.0729   -0.0000 O   0  0  0  0  0  0  0  0  0  0  0  0
   -7.3188    2.5059   -0.0000 C   0  0  0  0  0  0  0  0  0  0  0  0
   -8.7474    2.9743   -0.0000 C   0  0  0  0  0  0  0  0  0  0  0  0
   -9.0753    4.4615   -0.0000 N   0  0  0  0  0  0  0  0  0  0  0  0
  -10.5156    4.9416   -0.0000 C   0  0  0  0  0  0  0  0  0  0  0  0
   -7.9745    5.4920   -0.0000 C   0  0  0  0  0  0  0  0  0  0  0  0
  -10.8435    6.4288   -0.0000 C   0  0  0  0  0  0  0  0  0  0  0  0
   -8.3024    6.9558   -0.0000 C   0  0  0  0  0  0  0  0  0  0  0  0
   -9.7427    7.4593   -0.0000 C   0  0  0  0  0  0  0  0  0  0  0  0
  1  2  1  0  0  0  0
  1  3  1  0  0  0  0
  2  4  1  0  0  0  0
  2  5  2  0  0  0  0
  3  6  1  0  0  0  0
  3  7  2  0  0  0  0
  4  8  2  0  0  0  0
  4  9  1  0  0  0  0
  5 10  1  0  0  0  0
  6 11  2  0  0  0  0
  6 12  1  0  0  0  0
  7 13  1  0  0  0  0
  8 14  1  0  0  0  0
  9 15  2  0  0  0  0
 10 16  2  0  0  0  0
 10 17  1  0  0  0  0
 11 18  1  0  0  0  0
 12 19  2  0  0  0  0
 13 20  1  0  0  0  0
 14 21  2  0  0  0  0
 16 22  1  0  0  0  0
 17 23  2  0  0  0  0
 18 24  2  0  0  0  0
 21 25  1  0  0  0  0
 22 26  2  0  0  0  0
 24 27  1  0  0  0  0
 26 28  1  0  0  0  0
 27 29  1  0  0  0  0
 29 30  1  0  0  0  0
 30 31  1  0  0  0  0
 31 32  1  0  0  0  0
 31 33  1  0  0  0  0
 32 34  1  0  0  0  0
 33 35  1  0  0  0  0
 34 36  1  0  0  0  0
  5  7  1  0  0  0  0
 15 21  1  0  0  0  0
 19 24  1  0  0  0  0
 23 26  1  0  0  0  0
 35 36  1  0  0  0  0
M  END
>  <MolRegNo>
136107

>  <m>
=

>  <Value>
0.36

>  <Unit>
nM

>  <Type>
Ki

>  <pValue>
9.44

>  <Ligand Efficiency>
0.36

>  <Binding Efficiency>
19.53

>  <Surface Efficiency>
14.29

>  <Assay Index>
67397

>  <Assay Category>


>  <Assay Organism>
Homo sapiens

>  <Target ID>
19

>  <Target Name>
Estrogen receptor alpha

>  <Target Organism>
Homo sapiens

>  <Target Description>
Target is a single protein chain

>  <Sequence Accession>
P03372

>  <Reference>
Bioorg Med Chem Lett 11 (18), 2521-2524 (2001)

>  <Pubmed ID>
11549460

>  <DOI>
10.1016/s0960-894x(01)00488-7

$$$$
136175
Actelion Java MolfileCreator 1.0

 35 39  0  0  0  0  0  0  0  0999 V2000
    0.0000   -0.0000   -0.0000 O   0  0  0  0  0  0  0  0  0  0  0  0
    1.2100   -0.8660   -0.0000 C   0  0  0  0  0  0  0  0  0  0  0  0
   -1.2219   -0.8660   -0.0000 C   0  0  0  0  0  0  0  0  0  0  0  0
    2.6336   -0.3796   -0.0000 C   0  0  0  0  0  0  0  0  0  0  0  0
    0.7355   -2.2896   -0.0000 C   0  0  0  0  0  0  0  0  0  0  0  0
   -2.6692   -0.4033   -0.0000 C   0  0  0  0  0  0  0  0  0  0  0  0
   -0.7830   -2.2896   -0.0000 C   0  0  0  0  0  0  0  0  0  0  0  0
    2.9302    1.0914   -0.0000 C   0  0  0  0  0  0  0  0  0  0  0  0
    3.7369   -1.3880   -0.0000 C   0  0  0  0  0  0  0  0  0  0  0  0
    1.6015   -3.4878   -0.0000 C   0  0  0  0  0  0  0  0  0  0  0  0
   -3.0014    1.0795   -0.0000 C   0  0  0  0  0  0  0  0  0  0  0  0
   -3.7962   -1.3998   -0.0000 C   0  0  0  0  0  0  0  0  0  0  0  0
   -1.6727   -3.4996   -0.0000 C   0  0  0  0  0  0  0  0  0  0  0  0
    4.3419    1.5659   -0.0000 C   0  0  0  0  0  0  0  0  0  0  0  0
    5.1605   -0.9016   -0.0000 C   0  0  0  0  0  0  0  0  0  0  0  0
    0.9728   -4.8520   -0.0000 C   0  0  0  0  0  0  0  0  0  0  0  0
    3.0844   -3.3217   -0.0000 C   0  0  0  0  0  0  0  0  0  0  0  0
   -4.4368    1.5541   -0.0000 C   0  0  0  0  0  0  0  0  0  0  0  0
   -5.2316   -0.9372   -0.0000 C   0  0  0  0  0  0  0  0  0  0  0  0
   -1.0795   -4.8520   -0.0000 C   0  0  0  0  0  0  0  0  0  0  0  0
    5.4452    0.5694   -0.0000 C   0  0  0  0  0  0  0  0  0  0  0  0
    1.8506   -6.0502   -0.0000 C   0  0  0  0  0  0  0  0  0  0  0  0
    3.9623   -4.5199   -0.0000 C   0  0  0  0  0  0  0  0  0  0  0  0
   -5.5638    0.5576   -0.0000 C   0  0  0  0  0  0  0  0  0  0  0  0
    3.3335   -5.8841   -0.0000 C   0  0  0  0  0  0  0  0  0  0  0  0
   -7.0111    1.0202   -0.0000 O   0  0  0  0  0  0  0  0  0  0  0  0
    4.1995   -7.0941   -0.0000 O   0  0  0  0  0  0  0  0  0  0  0  0
    5.6943   -6.9281   -0.0000 C   0  0  0  0  0  0  0  0  0  0  0  0
    6.2993   -5.5401   -0.0000 C   0  0  0  0  0  0  0  0  0  0  0  0
    7.7822   -5.3740   -0.0000 N   0  0  0  0  0  0  0  0  0  0  0  0
    8.6482   -6.5840   -0.0000 C   0  0  0  0  0  0  0  0  0  0  0  0
    8.3754   -3.9979   -0.0000 C   0  0  0  0  0  0  0  0  0  0  0  0
   10.1311   -6.4298   -0.0000 C   0  0  0  0  0  0  0  0  0  0  0  0
    9.8701   -3.8318   -0.0000 C   0  0  0  0  0  0  0  0  0  0  0  0
   10.7480   -5.0537   -0.0000 C   0  0  0  0  0  0  0  0  0  0  0  0
  1  2  1  0  0  0  0
  1  3  1  0  0  0  0
  2  4  1  0  0  0  0
  2  5  2  0  0  0  0
  3  6  1  0  0  0  0
  3  7  2  0  0  0  0
  4  8  2  0  0  0  0
  4  9  1  0  0  0  0
  5 10  1  0  0  0  0
  6 11  2  0  0  0  0
  6 12  1  0  0  0  0
  7 13  1  0  0  0  0
  8 14  1  0  0  0  0
  9 15  2  0  0  0  0
 10 16  2  0  0  0  0
 10 17  1  0  0  0  0
 11 18  1  0  0  0  0
 12 19  2  0  0  0  0
 13 20  1  0  0  0  0
 14 21  2  0  0  0  0
 16 22  1  0  0  0  0
 17 23  2  0  0  0  0
 18 24  2  0  0  0  0
 22 25  2  0  0  0  0
 24 26  1  0  0  0  0
 25 27  1  0  0  0  0
 27 28  1  0  0  0  0
 28 29  1  0  0  0  0
 29 30  1  0  0  0  0
 30 31  1  0  0  0  0
 30 32  1  0  0  0  0
 31 33  1  0  0  0  0
 32 34  1  0  0  0  0
 33 35  1  0  0  0  0
  5  7  1  0  0  0  0
 15 21  1  0  0  0  0
 19 24  1  0  0  0  0
 23 25  1  0  0  0  0
 34 35  1  0  0  0  0
M  END
>  <MolRegNo>
136175

>  <m>
=

>  <Value>
3.8

>  <Unit>
nM

>  <Type>
Ki

>  <pValue>
8.42

>  <Ligand Efficiency>
0.33

>  <Binding Efficiency>
18.01

>  <Surface Efficiency>
18.37

>  <Assay Index>
67397

>  <Assay Category>


>  <Assay Organism>
Homo sapiens

>  <Target ID>
19

>  <Target Name>
Estrogen receptor alpha

>  <Target Organism>
Homo sapiens

>  <Target Description>
Target is a single protein chain

>  <Sequence Accession>
P03372

>  <Reference>
Bioorg Med Chem Lett 11 (18), 2521-2524 (2001)

>  <Pubmed ID>
11549460

>  <DOI>
10.1016/s0960-894x(01)00488-7

$$$$
136208
Actelion Java MolfileCreator 1.0

 35 39  0  0  0  0  0  0  0  0999 V2000
    0.0000   -0.0000   -0.0000 O   0  0  0  0  0  0  0  0  0  0  0  0
    1.2109   -0.8785   -0.0000 C   0  0  0  0  0  0  0  0  0  0  0  0
   -1.2227   -0.8785   -0.0000 C   0  0  0  0  0  0  0  0  0  0  0  0
    2.6354   -0.4036   -0.0000 C   0  0  0  0  0  0  0  0  0  0  0  0
    0.7360   -2.3030   -0.0000 C   0  0  0  0  0  0  0  0  0  0  0  0
   -2.6710   -0.4155   -0.0000 C   0  0  0  0  0  0  0  0  0  0  0  0
   -0.7835   -2.3030   -0.0000 C   0  0  0  0  0  0  0  0  0  0  0  0
    2.9322    1.0803   -0.0000 C   0  0  0  0  0  0  0  0  0  0  0  0
    3.7395   -1.4008   -0.0000 C   0  0  0  0  0  0  0  0  0  0  0  0
    1.6026   -3.5020   -0.0000 C   0  0  0  0  0  0  0  0  0  0  0  0
   -3.7988   -1.4127   -0.0000 C   0  0  0  0  0  0  0  0  0  0  0  0
   -3.0034    1.0684   -0.0000 C   0  0  0  0  0  0  0  0  0  0  0  0
   -1.6739   -3.5020   -0.0000 C   0  0  0  0  0  0  0  0  0  0  0  0
    4.3449    1.5433   -0.0000 C   0  0  0  0  0  0  0  0  0  0  0  0
    5.1640   -0.9141   -0.0000 C   0  0  0  0  0  0  0  0  0  0  0  0
    0.9734   -4.8554   -0.0000 C   0  0  0  0  0  0  0  0  0  0  0  0
    3.0865   -3.3358   -0.0000 C   0  0  0  0  0  0  0  0  0  0  0  0
   -5.2352   -0.9497   -0.0000 C   0  0  0  0  0  0  0  0  0  0  0  0
   -4.4399    1.5314   -0.0000 C   0  0  0  0  0  0  0  0  0  0  0  0
   -1.0803   -4.8791   -0.0000 C   0  0  0  0  0  0  0  0  0  0  0  0
    5.4489    0.5580   -0.0000 C   0  0  0  0  0  0  0  0  0  0  0  0
    1.8519   -6.0662   -0.0000 C   0  0  0  0  0  0  0  0  0  0  0  0
    3.9650   -4.5348   -0.0000 C   0  0  0  0  0  0  0  0  0  0  0  0
   -5.5676    0.5461   -0.0000 C   0  0  0  0  0  0  0  0  0  0  0  0
    6.8735    1.0209   -0.0000 O   0  0  0  0  0  0  0  0  0  0  0  0
    3.3358   -5.9000   -0.0000 C   0  0  0  0  0  0  0  0  0  0  0  0
    4.2024   -7.1109   -0.0000 O   0  0  0  0  0  0  0  0  0  0  0  0
    5.6982   -6.9447   -0.0000 C   0  0  0  0  0  0  0  0  0  0  0  0
    6.3037   -5.5676   -0.0000 C   0  0  0  0  0  0  0  0  0  0  0  0
    7.7876   -5.4014   -0.0000 N   0  0  0  0  0  0  0  0  0  0  0  0
    8.6542   -6.6123   -0.0000 C   0  0  0  0  0  0  0  0  0  0  0  0
    8.3811   -4.0244   -0.0000 C   0  0  0  0  0  0  0  0  0  0  0  0
   10.1381   -6.4461   -0.0000 C   0  0  0  0  0  0  0  0  0  0  0  0
    9.8769   -3.8582   -0.0000 C   0  0  0  0  0  0  0  0  0  0  0  0
   10.7554   -5.0690   -0.0000 C   0  0  0  0  0  0  0  0  0  0  0  0
  1  2  1  0  0  0  0
  1  3  1  0  0  0  0
  2  4  1  0  0  0  0
  2  5  2  0  0  0  0
  3  6  1  0  0  0  0
  3  7  2  0  0  0  0
  4  8  2  0  0  0  0
  4  9  1  0  0  0  0
  5 10  1  0  0  0  0
  6 11  2  0  0  0  0
  6 12  1  0  0  0  0
  7 13  1  0  0  0  0
  8 14  1  0  0  0  0
  9 15  2  0  0  0  0
 10 16  2  0  0  0  0
 10 17  1  0  0  0  0
 11 18  1  0  0  0  0
 12 19  2  0  0  0  0
 13 20  1  0  0  0  0
 14 21  2  0  0  0  0
 16 22  1  0  0  0  0
 17 23  2  0  0  0  0
 18 24  2  0  0  0  0
 21 25  1  0  0  0  0
 22 26  2  0  0  0  0
 26 27  1  0  0  0  0
 27 28  1  0  0  0  0
 28 29  1  0  0  0  0
 29 30  1  0  0  0  0
 30 31  1  0  0  0  0
 30 32  1  0  0  0  0
 31 33  1  0  0  0  0
 32 34  1  0  0  0  0
 33 35  1  0  0  0  0
  5  7  1  0  0  0  0
 15 21  1  0  0  0  0
 19 24  1  0  0  0  0
 23 26  1  0  0  0  0
 34 35  1  0  0  0  0
M  END
>  <MolRegNo>
136208

>  <m>
=

>  <Value>
60

>  <Unit>
nM

>  <Type>
Ki

>  <pValue>
7.22

>  <Ligand Efficiency>
0.28

>  <Binding Efficiency>
15.44

>  <Surface Efficiency>
15.75

>  <Assay Index>
67397

>  <Assay Category>


>  <Assay Organism>
Homo sapiens

>  <Target ID>
19

>  <Target Name>
Estrogen receptor alpha

>  <Target Organism>
Homo sapiens

>  <Target Description>
Target is a single protein chain

>  <Sequence Accession>
P03372

>  <Reference>
Bioorg Med Chem Lett 11 (18), 2521-2524 (2001)

>  <Pubmed ID>
11549460

>  <DOI>
10.1016/s0960-894x(01)00488-7

$$$$
11624
Actelion Java MolfileCreator 1.0

 35 40  0  0  0  0  0  0  0  0999 V2000
    0.0000   -0.0000   -0.0000 O   0  0  0  0  0  0  0  0  0  0  0  0
    1.2902   -0.7407   -0.0000 C   0  0  0  0  0  0  0  0  0  0  0  0
   -1.3141   -0.7407   -0.0000 C   0  0  0  0  0  0  0  0  0  0  0  0
    1.2783   -2.2340   -0.0000 C   0  0  0  0  0  0  0  0  0  0  0  0
    2.5924    0.0239   -0.0000 C   0  0  0  0  0  0  0  0  0  0  0  0
   -2.6283    0.0239   -0.0000 C   0  0  0  0  0  0  0  0  0  0  0  0
    2.5805   -2.9747   -0.0000 C   0  0  0  0  0  0  0  0  0  0  0  0
    3.8827   -0.7168   -0.0000 C   0  0  0  0  0  0  0  0  0  0  0  0
   -3.9544   -0.7168   -0.0000 N   0  0  0  0  0  0  0  0  0  0  0  0
    3.8707   -2.1982   -0.0000 C   0  0  0  0  0  0  0  0  0  0  0  0
   -3.9663   -2.2101   -0.0000 C   0  0  0  0  0  0  0  0  0  0  0  0
   -5.2805    0.0597   -0.0000 C   0  0  0  0  0  0  0  0  0  0  0  0
    5.1729   -2.9389   -0.0000 N   0  0  0  0  0  0  0  0  0  0  0  0
   -5.2924   -2.9508   -0.0000 C   0  0  0  0  0  0  0  0  0  0  0  0
   -6.5946   -0.6690   -0.0000 C   0  0  0  0  0  0  0  0  0  0  0  0
    5.1729   -4.4203   -0.0000 C   0  0  0  0  0  0  0  0  0  0  0  0
    6.4632   -2.1743   -0.0000 C   0  0  0  0  0  0  0  0  0  0  0  0
   -6.6065   -2.1743   -0.0000 C   0  0  0  0  0  0  0  0  0  0  0  0
    6.4512   -5.1610   -0.0000 C   0  0  0  0  0  0  0  0  0  0  0  0
    3.8588   -5.1610   -0.0000 C   0  0  0  0  0  0  0  0  0  0  0  0
    7.7534   -2.9031   -0.0000 C   0  0  0  0  0  0  0  0  0  0  0  0
    7.7176   -4.3964   -0.0000 C   0  0  0  0  0  0  0  0  0  0  0  0
    6.4632   -6.6663   -0.0000 C   0  0  0  0  0  0  0  0  0  0  0  0
    3.8468   -6.6543   -0.0000 C   0  0  0  0  0  0  0  0  0  0  0  0
    2.5447   -4.3964   -0.0000 C   0  0  0  0  0  0  0  0  0  0  0  0
    9.0198   -2.1504   -0.0000 C   0  0  0  0  0  0  0  0  0  0  0  0
    9.0078   -5.1251   -0.0000 C   0  0  0  0  0  0  0  0  0  0  0  0
    5.1490   -7.4070   -0.0000 C   0  0  0  0  0  0  0  0  0  0  0  0
    2.5327   -7.3950   -0.0000 C   0  0  0  0  0  0  0  0  0  0  0  0
    1.2425   -5.1371   -0.0000 C   0  0  0  0  0  0  0  0  0  0  0  0
   10.3100   -2.8911   -0.0000 C   0  0  0  0  0  0  0  0  0  0  0  0
   10.2981   -4.3844   -0.0000 C   0  0  0  0  0  0  0  0  0  0  0  0
    1.2305   -6.6304   -0.0000 C   0  0  0  0  0  0  0  0  0  0  0  0
   11.6003   -2.1265   -0.0000 O   0  0  0  0  0  0  0  0  0  0  0  0
   -0.0956   -7.3711   -0.0000 O   0  0  0  0  0  0  0  0  0  0  0  0
  1  2  1  0  0  0  0
  1  3  1  0  0  0  0
  2  4  2  0  0  0  0
  2  5  1  0  0  0  0
  3  6  1  0  0  0  0
  4  7  1  0  0  0  0
  5  8  2  0  0  0  0
  6  9  1  0  0  0  0
  7 10  2  0  0  0  0
  9 11  1  0  0  0  0
  9 12  1  0  0  0  0
 10 13  1  0  0  0  0
 11 14  1  0  0  0  0
 12 15  1  0  0  0  0
 13 16  1  0  0  0  0
 13 17  1  0  0  0  0
 14 18  1  0  0  0  0
 16 19  2  0  0  0  0
 16 20  1  0  0  0  0
 17 21  1  0  0  0  0
 19 22  1  0  0  0  0
 19 23  1  0  0  0  0
 20 24  1  0  0  0  0
 20 25  2  0  0  0  0
 21 26  1  0  0  0  0
 22 27  1  0  0  0  0
 23 28  2  0  0  0  0
 24 29  2  0  0  0  0
 25 30  1  0  0  0  0
 26 31  2  0  0  0  0
 27 32  2  0  0  0  0
 29 33  1  0  0  0  0
 31 34  1  0  0  0  0
 33 35  1  0  0  0  0
  8 10  1  0  0  0  0
 15 18  1  0  0  0  0
 21 22  2  0  0  0  0
 24 28  1  0  0  0  0
 30 33  2  0  0  0  0
 31 32  1  0  0  0  0
M  END
>  <MolRegNo>
11624

>  <m>
=

>  <Value>
0.28

>  <Unit>
nM

>  <Type>
Ki

>  <pValue>
9.55

>  <Ligand Efficiency>
0.37

>  <Binding Efficiency>
20.47

>  <Surface Efficiency>
17.01

>  <Assay Index>
67548

>  <Assay Category>


>  <Assay Organism>


>  <Target ID>
19

>  <Target Name>
Estrogen receptor alpha

>  <Target Organism>
Homo sapiens

>  <Target Description>
Target is a single protein chain

>  <Sequence Accession>
P03372

>  <Reference>
J Med Chem 46 (7), 1081-1111 (2003)

>  <Pubmed ID>
12646017

>  <DOI>
10.1021/jm020450x

$$$$
43622
Actelion Java MolfileCreator 1.0

 34 38  0  0  0  0  0  0  0  0999 V2000
    0.0000   -0.0000   -0.0000 O   0  0  0  0  0  0  0  0  0  0  0  0
   -1.3066    0.7483   -0.0000 C   0  0  0  0  0  0  0  0  0  0  0  0
    0.0000   -1.4848   -0.0000 C   0  0  0  0  0  0  0  0  0  0  0  0
   -1.3304    2.2569   -0.0000 C   0  0  0  0  0  0  0  0  0  0  0  0
   -2.6132   -0.0000   -0.0000 C   0  0  0  0  0  0  0  0  0  0  0  0
    1.2829   -2.2094   -0.0000 C   0  0  0  0  0  0  0  0  0  0  0  0
   -2.6370    3.0052   -0.0000 C   0  0  0  0  0  0  0  0  0  0  0  0
   -3.9318    0.7483   -0.0000 C   0  0  0  0  0  0  0  0  0  0  0  0
    1.2710   -3.6942   -0.0000 N   0  0  0  0  0  0  0  0  0  0  0  0
   -3.9318    2.2569   -0.0000 C   0  0  0  0  0  0  0  0  0  0  0  0
    2.5657   -4.4069   -0.0000 C   0  0  0  0  0  0  0  0  0  0  0  0
   -0.0356   -4.4306   -0.0000 C   0  0  0  0  0  0  0  0  0  0  0  0
   -5.2384    3.0171   -0.0000 C   0  0  0  0  0  0  0  0  0  0  0  0
    2.5539   -5.9036   -0.0000 C   0  0  0  0  0  0  0  0  0  0  0  0
   -0.0356   -5.9154   -0.0000 C   0  0  0  0  0  0  0  0  0  0  0  0
   -5.2621    4.5257   -0.0000 C   0  0  0  0  0  0  0  0  0  0  0  0
   -6.5450    2.2688   -0.0000 C   0  0  0  0  0  0  0  0  0  0  0  0
    1.2472   -6.6519   -0.0000 C   0  0  0  0  0  0  0  0  0  0  0  0
   -6.5688    5.2859   -0.0000 C   0  0  0  0  0  0  0  0  0  0  0  0
   -3.9911    5.2978   -0.0000 C   0  0  0  0  0  0  0  0  0  0  0  0
   -7.8635    3.0290   -0.0000 C   0  0  0  0  0  0  0  0  0  0  0  0
   -7.8754    4.5376   -0.0000 C   0  0  0  0  0  0  0  0  0  0  0  0
   -6.6044    6.7707   -0.0000 C   0  0  0  0  0  0  0  0  0  0  0  0
   -4.0149    6.7944   -0.0000 C   0  0  0  0  0  0  0  0  0  0  0  0
   -9.1701    2.2807   -0.0000 C   0  0  0  0  0  0  0  0  0  0  0  0
   -9.1820    5.2978   -0.0000 C   0  0  0  0  0  0  0  0  0  0  0  0
   -5.3334    7.5309   -0.0000 C   0  0  0  0  0  0  0  0  0  0  0  0
   -2.7320    7.5665   -0.0000 C   0  0  0  0  0  0  0  0  0  0  0  0
  -10.4768    3.0409   -0.0000 C   0  0  0  0  0  0  0  0  0  0  0  0
  -10.4886    4.5613   -0.0000 C   0  0  0  0  0  0  0  0  0  0  0  0
   -9.2058    6.8063   -0.0000 C   0  0  0  0  0  0  0  0  0  0  0  0
   -1.4492    6.8420   -0.0000 C   0  0  0  0  0  0  0  0  0  0  0  0
   -2.7677    9.0751   -0.0000 C   0  0  0  0  0  0  0  0  0  0  0  0
  -11.7834    2.3163   -0.0000 O   0  0  0  0  0  0  0  0  0  0  0  0
  1  2  1  0  0  0  0
  1  3  1  0  0  0  0
  2  4  2  0  0  0  0
  2  5  1  0  0  0  0
  3  6  1  0  0  0  0
  4  7  1  0  0  0  0
  5  8  2  0  0  0  0
  6  9  1  0  0  0  0
  7 10  2  0  0  0  0
  9 11  1  0  0  0  0
  9 12  1  0  0  0  0
 10 13  1  0  0  0  0
 11 14  1  0  0  0  0
 12 15  1  0  0  0  0
 13 16  1  0  0  0  0
 13 17  2  0  0  0  0
 14 18  1  0  0  0  0
 16 19  1  0  0  0  0
 16 20  2  0  0  0  0
 17 21  1  0  0  0  0
 19 22  1  0  0  0  0
 19 23  2  0  0  0  0
 20 24  1  0  0  0  0
 21 25  2  0  0  0  0
 22 26  2  0  0  0  0
 23 27  1  0  0  0  0
 24 28  1  0  0  0  0
 25 29  1  0  0  0  0
 26 30  1  0  0  0  0
 26 31  1  0  0  0  0
 28 32  2  0  0  0  0
 28 33  1  0  0  0  0
 29 34  1  0  0  0  0
  8 10  1  0  0  0  0
 15 18  1  0  0  0  0
 21 22  1  0  0  0  0
 24 27  2  0  0  0  0
 29 30  2  0  0  0  0
M  END
>  <MolRegNo>
43622

>  <m>
=

>  <Value>
290

>  <Unit>
nM

>  <Type>
Ki

>  <pValue>
6.54

>  <Ligand Efficiency>
0.26

>  <Binding Efficiency>
14.48

>  <Surface Efficiency>
19.99

>  <Assay Index>
67049

>  <Assay Category>


>  <Assay Organism>
Homo sapiens

>  <Target ID>
19

>  <Target Name>
Estrogen receptor alpha

>  <Target Organism>
Homo sapiens

>  <Target Description>
Target is a single protein chain

>  <Sequence Accession>
P03372

>  <Reference>
J Med Chem 46 (8), 1408-1418 (2003)

>  <Pubmed ID>
12672240

>  <DOI>
10.1021/jm020536q

$$$$
45231
Actelion Java MolfileCreator 1.0

 36 40  0  0  0  0  0  0  0  0999 V2000
    0.0000   -0.0000   -0.0000 O   0  0  0  0  0  0  0  0  0  0  0  0
   -1.3166    0.7354   -0.0000 C   0  0  0  0  0  0  0  0  0  0  0  0
    0.0000   -1.4827   -0.0000 C   0  0  0  0  0  0  0  0  0  0  0  0
   -1.3403    2.2537   -0.0000 C   0  0  0  0  0  0  0  0  0  0  0  0
   -2.6214   -0.0000   -0.0000 C   0  0  0  0  0  0  0  0  0  0  0  0
    1.2929   -2.2181   -0.0000 C   0  0  0  0  0  0  0  0  0  0  0  0
   -2.6569    3.0128   -0.0000 C   0  0  0  0  0  0  0  0  0  0  0  0
   -3.9380    0.7473   -0.0000 C   0  0  0  0  0  0  0  0  0  0  0  0
    1.2810   -3.7007   -0.0000 N   0  0  0  0  0  0  0  0  0  0  0  0
   -3.9498    2.2655   -0.0000 C   0  0  0  0  0  0  0  0  0  0  0  0
    2.5858   -4.4124   -0.0000 C   0  0  0  0  0  0  0  0  0  0  0  0
   -0.0237   -4.4362   -0.0000 C   0  0  0  0  0  0  0  0  0  0  0  0
   -5.2664    3.0246   -0.0000 C   0  0  0  0  0  0  0  0  0  0  0  0
    2.5739   -5.8951   -0.0000 C   0  0  0  0  0  0  0  0  0  0  0  0
   -0.0237   -5.9188   -0.0000 C   0  0  0  0  0  0  0  0  0  0  0  0
   -5.2902    4.5429   -0.0000 C   0  0  0  0  0  0  0  0  0  0  0  0
   -6.5712    2.2892   -0.0000 C   0  0  0  0  0  0  0  0  0  0  0  0
    1.2692   -6.6424   -0.0000 C   0  0  0  0  0  0  0  0  0  0  0  0
   -6.5949    5.3020   -0.0000 C   0  0  0  0  0  0  0  0  0  0  0  0
   -4.0210    5.3139   -0.0000 C   0  0  0  0  0  0  0  0  0  0  0  0
   -7.8878    3.0484   -0.0000 C   0  0  0  0  0  0  0  0  0  0  0  0
   -7.8997    4.5666   -0.0000 C   0  0  0  0  0  0  0  0  0  0  0  0
   -6.6305    6.7847   -0.0000 C   0  0  0  0  0  0  0  0  0  0  0  0
   -4.0447    6.7966   -0.0000 C   0  0  0  0  0  0  0  0  0  0  0  0
   -9.1926    2.3011   -0.0000 C   0  0  0  0  0  0  0  0  0  0  0  0
   -9.2044    5.3258   -0.0000 C   0  0  0  0  0  0  0  0  0  0  0  0
   -5.3613    7.5557   -0.0000 C   0  0  0  0  0  0  0  0  0  0  0  0
   -2.7637    7.5794   -0.0000 C   0  0  0  0  0  0  0  0  0  0  0  0
  -10.4973    3.0602   -0.0000 C   0  0  0  0  0  0  0  0  0  0  0  0
  -10.5092    4.5785   -0.0000 C   0  0  0  0  0  0  0  0  0  0  0  0
   -9.2281    6.8322   -0.0000 C   0  0  0  0  0  0  0  0  0  0  0  0
   -1.4827    6.8440   -0.0000 C   0  0  0  0  0  0  0  0  0  0  0  0
   -2.7993    9.0858   -0.0000 C   0  0  0  0  0  0  0  0  0  0  0  0
  -11.8021    2.3367   -0.0000 O   0  0  0  0  0  0  0  0  0  0  0  0
   -0.2016    7.6150   -0.0000 C   0  0  0  0  0  0  0  0  0  0  0  0
   -1.4708    5.3613   -0.0000 C   0  0  0  0  0  0  0  0  0  0  0  0
  1  2  1  0  0  0  0
  1  3  1  0  0  0  0
  2  4  2  0  0  0  0
  2  5  1  0  0  0  0
  3  6  1  0  0  0  0
  4  7  1  0  0  0  0
  5  8  2  0  0  0  0
  6  9  1  0  0  0  0
  7 10  2  0  0  0  0
  9 11  1  0  0  0  0
  9 12  1  0  0  0  0
 10 13  1  0  0  0  0
 11 14  1  0  0  0  0
 12 15  1  0  0  0  0
 13 16  1  0  0  0  0
 13 17  2  0  0  0  0
 14 18  1  0  0  0  0
 16 19  1  0  0  0  0
 16 20  2  0  0  0  0
 17 21  1  0  0  0  0
 19 22  1  0  0  0  0
 19 23  2  0  0  0  0
 20 24  1  0  0  0  0
 21 25  2  0  0  0  0
 22 26  2  0  0  0  0
 23 27  1  0  0  0  0
 24 28  1  0  0  0  0
 25 29  1  0  0  0  0
 26 30  1  0  0  0  0
 26 31  1  0  0  0  0
 28 32  2  0  0  0  0
 28 33  1  0  0  0  0
 29 34  1  0  0  0  0
 32 35  1  0  0  0  0
 32 36  1  0  0  0  0
  8 10  1  0  0  0  0
 15 18  1  0  0  0  0
 21 22  1  0  0  0  0
 24 27  2  0  0  0  0
 29 30  2  0  0  0  0
M  END
>  <MolRegNo>
45231

>  <m>
=

>  <Value>
210

>  <Unit>
nM

>  <Type>
Ki

>  <pValue>
6.68

>  <Ligand Efficiency>
0.25

>  <Binding Efficiency>
13.92

>  <Surface Efficiency>
20.42

>  <Assay Index>
67049

>  <Assay Category>


>  <Assay Organism>
Homo sapiens

>  <Target ID>
19

>  <Target Name>
Estrogen receptor alpha

>  <Target Organism>
Homo sapiens

>  <Target Description>
Target is a single protein chain

>  <Sequence Accession>
P03372

>  <Reference>
J Med Chem 46 (8), 1408-1418 (2003)

>  <Pubmed ID>
12672240

>  <DOI>
10.1021/jm020536q

$$$$
45193
Actelion Java MolfileCreator 1.0

 36 40  0  0  0  0  0  0  0  0999 V2000
    0.0000   -0.0000   -0.0000 O   0  0  0  0  0  0  0  0  0  0  0  0
   -1.3139    0.7406   -0.0000 C   0  0  0  0  0  0  0  0  0  0  0  0
   -2.6278   -0.0119   -0.0000 C   0  0  0  0  0  0  0  0  0  0  0  0
   -1.3497    2.2575   -0.0000 C   0  0  0  0  0  0  0  0  0  0  0  0
   -2.6278   -1.4811   -0.0000 C   0  0  0  0  0  0  0  0  0  0  0  0
   -3.9417    0.7406   -0.0000 C   0  0  0  0  0  0  0  0  0  0  0  0
   -0.0597    3.0459   -0.0000 C   0  0  0  0  0  0  0  0  0  0  0  0
   -2.6637    3.0220   -0.0000 C   0  0  0  0  0  0  0  0  0  0  0  0
   -3.9298   -2.2217   -0.0000 C   0  0  0  0  0  0  0  0  0  0  0  0
   -5.2437   -0.0119   -0.0000 C   0  0  0  0  0  0  0  0  0  0  0  0
   -3.9298   -3.7267   -0.0000 C   0  0  0  0  0  0  0  0  0  0  0  0
   -5.2437   -1.4692   -0.0000 C   0  0  0  0  0  0  0  0  0  0  0  0
   -2.6398   -4.4553   -0.0000 C   0  0  0  0  0  0  0  0  0  0  0  0
   -5.2437   -4.4792   -0.0000 C   0  0  0  0  0  0  0  0  0  0  0  0
   -6.5576   -2.2217   -0.0000 C   0  0  0  0  0  0  0  0  0  0  0  0
   -1.3617   -3.6909   -0.0000 C   0  0  0  0  0  0  0  0  0  0  0  0
   -2.6517   -5.9484   -0.0000 C   0  0  0  0  0  0  0  0  0  0  0  0
   -6.5695   -3.7148   -0.0000 C   0  0  0  0  0  0  0  0  0  0  0  0
   -7.8715   -1.4572   -0.0000 C   0  0  0  0  0  0  0  0  0  0  0  0
   -0.0717   -4.4076   -0.0000 C   0  0  0  0  0  0  0  0  0  0  0  0
   -1.3497   -6.6890   -0.0000 C   0  0  0  0  0  0  0  0  0  0  0  0
   -7.8835   -4.4553   -0.0000 C   0  0  0  0  0  0  0  0  0  0  0  0
   -9.1854   -2.1978   -0.0000 C   0  0  0  0  0  0  0  0  0  0  0  0
   -7.8954    0.0597   -0.0000 C   0  0  0  0  0  0  0  0  0  0  0  0
   -0.0717   -5.9126   -0.0000 C   0  0  0  0  0  0  0  0  0  0  0  0
   -9.1974   -3.6909   -0.0000 C   0  0  0  0  0  0  0  0  0  0  0  0
    1.2184   -6.6412   -0.0000 O   0  0  0  0  0  0  0  0  0  0  0  0
  -10.5113   -4.4315   -0.0000 O   0  0  0  0  0  0  0  0  0  0  0  0
    1.2184   -8.1343   -0.0000 C   0  0  0  0  0  0  0  0  0  0  0  0
    2.5084   -8.8629   -0.0000 C   0  0  0  0  0  0  0  0  0  0  0  0
    2.4964  -10.3560   -0.0000 N   0  0  0  0  0  0  0  0  0  0  0  0
    3.7984  -11.0727   -0.0000 C   0  0  0  0  0  0  0  0  0  0  0  0
    1.1825  -11.0966   -0.0000 C   0  0  0  0  0  0  0  0  0  0  0  0
    3.7864  -12.5658   -0.0000 C   0  0  0  0  0  0  0  0  0  0  0  0
    1.1825  -12.5658   -0.0000 C   0  0  0  0  0  0  0  0  0  0  0  0
    2.4725  -13.3063   -0.0000 C   0  0  0  0  0  0  0  0  0  0  0  0
  1  2  2  0  0  0  0
  2  3  1  0  0  0  0
  2  4  1  0  0  0  0
  3  5  2  0  0  0  0
  3  6  1  0  0  0  0
  4  7  1  0  0  0  0
  4  8  1  0  0  0  0
  5  9  1  0  0  0  0
  6 10  2  0  0  0  0
  9 11  2  0  0  0  0
  9 12  1  0  0  0  0
 11 13  1  0  0  0  0
 11 14  1  0  0  0  0
 12 15  2  0  0  0  0
 13 16  2  0  0  0  0
 13 17  1  0  0  0  0
 14 18  2  0  0  0  0
 15 19  1  0  0  0  0
 16 20  1  0  0  0  0
 17 21  2  0  0  0  0
 18 22  1  0  0  0  0
 19 23  2  0  0  0  0
 19 24  1  0  0  0  0
 20 25  2  0  0  0  0
 22 26  2  0  0  0  0
 25 27  1  0  0  0  0
 26 28  1  0  0  0  0
 27 29  1  0  0  0  0
 29 30  1  0  0  0  0
 30 31  1  0  0  0  0
 31 32  1  0  0  0  0
 31 33  1  0  0  0  0
 32 34  1  0  0  0  0
 33 35  1  0  0  0  0
 34 36  1  0  0  0  0
 10 12  1  0  0  0  0
 15 18  1  0  0  0  0
 21 25  1  0  0  0  0
 23 26  1  0  0  0  0
 35 36  1  0  0  0  0
M  END
>  <MolRegNo>
45193

>  <m>
=

>  <Value>
490

>  <Unit>
nM

>  <Type>
Ki

>  <pValue>
6.31

>  <Ligand Efficiency>
0.24

>  <Binding Efficiency>
13.1

>  <Surface Efficiency>
12.68

>  <Assay Index>
67049

>  <Assay Category>


>  <Assay Organism>
Homo sapiens

>  <Target ID>
19

>  <Target Name>
Estrogen receptor alpha

>  <Target Organism>
Homo sapiens

>  <Target Description>
Target is a single protein chain

>  <Sequence Accession>
P03372

>  <Reference>
J Med Chem 46 (8), 1408-1418 (2003)

>  <Pubmed ID>
12672240

>  <DOI>
10.1021/jm020536q

$$$$
43771
Actelion Java MolfileCreator 1.0

 34 38  0  0  0  0  0  0  0  0999 V2000
    0.0000   -0.0000   -0.0000 O   0  0  0  0  0  0  0  0  0  0  0  0
   -1.3166    0.7354   -0.0000 C   0  0  0  0  0  0  0  0  0  0  0  0
    0.0000   -1.4826   -0.0000 C   0  0  0  0  0  0  0  0  0  0  0  0
   -1.3403    2.2536   -0.0000 C   0  0  0  0  0  0  0  0  0  0  0  0
   -2.6213   -0.0000   -0.0000 C   0  0  0  0  0  0  0  0  0  0  0  0
    1.2929   -2.2180   -0.0000 C   0  0  0  0  0  0  0  0  0  0  0  0
   -2.6569    3.0127   -0.0000 C   0  0  0  0  0  0  0  0  0  0  0  0
   -3.9260    0.7472   -0.0000 C   0  0  0  0  0  0  0  0  0  0  0  0
    1.2929   -3.7007   -0.0000 N   0  0  0  0  0  0  0  0  0  0  0  0
   -3.9497    2.2655   -0.0000 C   0  0  0  0  0  0  0  0  0  0  0  0
    2.5857   -4.4123   -0.0000 C   0  0  0  0  0  0  0  0  0  0  0  0
   -0.0119   -4.4361   -0.0000 C   0  0  0  0  0  0  0  0  0  0  0  0
   -5.2663    3.0246   -0.0000 C   0  0  0  0  0  0  0  0  0  0  0  0
    2.5739   -5.8950   -0.0000 C   0  0  0  0  0  0  0  0  0  0  0  0
   -0.0237   -5.9187   -0.0000 C   0  0  0  0  0  0  0  0  0  0  0  0
   -5.2901    4.5428   -0.0000 C   0  0  0  0  0  0  0  0  0  0  0  0
   -6.5711    2.2892   -0.0000 C   0  0  0  0  0  0  0  0  0  0  0  0
    1.2691   -6.6422   -0.0000 C   0  0  0  0  0  0  0  0  0  0  0  0
   -6.5948    5.3019   -0.0000 C   0  0  0  0  0  0  0  0  0  0  0  0
   -4.0209    5.3138   -0.0000 C   0  0  0  0  0  0  0  0  0  0  0  0
   -7.8758    3.0483   -0.0000 C   0  0  0  0  0  0  0  0  0  0  0  0
   -7.8876    4.5665   -0.0000 C   0  0  0  0  0  0  0  0  0  0  0  0
   -6.6185    6.7846   -0.0000 C   0  0  0  0  0  0  0  0  0  0  0  0
   -4.0446    6.7964   -0.0000 C   0  0  0  0  0  0  0  0  0  0  0  0
   -9.1924    2.3011   -0.0000 C   0  0  0  0  0  0  0  0  0  0  0  0
   -9.2042    5.3256   -0.0000 C   0  0  0  0  0  0  0  0  0  0  0  0
   -5.3612    7.5555   -0.0000 C   0  0  0  0  0  0  0  0  0  0  0  0
   -2.7636    7.5792   -0.0000 C   0  0  0  0  0  0  0  0  0  0  0  0
  -10.4971    3.0602   -0.0000 C   0  0  0  0  0  0  0  0  0  0  0  0
  -10.5089    4.5784   -0.0000 C   0  0  0  0  0  0  0  0  0  0  0  0
   -9.2279    6.8320   -0.0000 C   0  0  0  0  0  0  0  0  0  0  0  0
   -2.7874    9.0856   -0.0000 O   0  0  0  0  0  0  0  0  0  0  0  0
   -1.4708    6.8439   -0.0000 C   0  0  0  0  0  0  0  0  0  0  0  0
  -11.8018    2.3366   -0.0000 O   0  0  0  0  0  0  0  0  0  0  0  0
  1  2  1  0  0  0  0
  1  3  1  0  0  0  0
  2  4  2  0  0  0  0
  2  5  1  0  0  0  0
  3  6  1  0  0  0  0
  4  7  1  0  0  0  0
  5  8  2  0  0  0  0
  6  9  1  0  0  0  0
  7 10  2  0  0  0  0
  9 11  1  0  0  0  0
  9 12  1  0  0  0  0
 10 13  1  0  0  0  0
 11 14  1  0  0  0  0
 12 15  1  0  0  0  0
 13 16  1  0  0  0  0
 13 17  2  0  0  0  0
 14 18  1  0  0  0  0
 16 19  1  0  0  0  0
 16 20  2  0  0  0  0
 17 21  1  0  0  0  0
 19 22  1  0  0  0  0
 19 23  2  0  0  0  0
 20 24  1  0  0  0  0
 21 25  2  0  0  0  0
 22 26  2  0  0  0  0
 23 27  1  0  0  0  0
 24 28  1  0  0  0  0
 25 29  1  0  0  0  0
 26 30  1  0  0  0  0
 26 31  1  0  0  0  0
 28 32  1  0  0  0  0
 28 33  1  0  0  0  0
 29 34  1  0  0  0  0
  8 10  1  0  0  0  0
 15 18  1  0  0  0  0
 21 22  1  0  0  0  0
 24 27  2  0  0  0  0
 29 30  2  0  0  0  0
M  END
>  <MolRegNo>
43771

>  <m>
=

>  <Value>
120

>  <Unit>
nM

>  <Type>
Ki

>  <pValue>
6.92

>  <Ligand Efficiency>
0.28

>  <Binding Efficiency>
15.19

>  <Surface Efficiency>
13.08

>  <Assay Index>
67049

>  <Assay Category>


>  <Assay Organism>
Homo sapiens

>  <Target ID>
19

>  <Target Name>
Estrogen receptor alpha

>  <Target Organism>
Homo sapiens

>  <Target Description>
Target is a single protein chain

>  <Sequence Accession>
P03372

>  <Reference>
J Med Chem 46 (8), 1408-1418 (2003)

>  <Pubmed ID>
12672240

>  <DOI>
10.1021/jm020536q

$$$$
43973
Actelion Java MolfileCreator 1.0

 33 37  0  0  0  0  0  0  0  0999 V2000
    0.0000   -0.0000   -0.0000 O   0  0  0  0  0  0  0  0  0  0  0  0
   -1.3079    0.7490   -0.0000 C   0  0  0  0  0  0  0  0  0  0  0  0
    0.0000   -1.4862   -0.0000 C   0  0  0  0  0  0  0  0  0  0  0  0
   -1.3316    2.2709   -0.0000 C   0  0  0  0  0  0  0  0  0  0  0  0
   -2.6157   -0.0000   -0.0000 C   0  0  0  0  0  0  0  0  0  0  0  0
    1.2841   -2.2115   -0.0000 C   0  0  0  0  0  0  0  0  0  0  0  0
   -2.6395    3.0081   -0.0000 C   0  0  0  0  0  0  0  0  0  0  0  0
   -3.9354    0.7609   -0.0000 C   0  0  0  0  0  0  0  0  0  0  0  0
    1.2722   -3.6976   -0.0000 N   0  0  0  0  0  0  0  0  0  0  0  0
   -3.9354    2.2709   -0.0000 C   0  0  0  0  0  0  0  0  0  0  0  0
    2.5681   -4.4110   -0.0000 C   0  0  0  0  0  0  0  0  0  0  0  0
   -0.0357   -4.4348   -0.0000 C   0  0  0  0  0  0  0  0  0  0  0  0
   -5.2433    3.0199   -0.0000 C   0  0  0  0  0  0  0  0  0  0  0  0
    2.5563   -5.8972   -0.0000 C   0  0  0  0  0  0  0  0  0  0  0  0
   -0.0357   -5.8972   -0.0000 C   0  0  0  0  0  0  0  0  0  0  0  0
   -5.2671    4.5418   -0.0000 C   0  0  0  0  0  0  0  0  0  0  0  0
   -6.5511    2.2709   -0.0000 C   0  0  0  0  0  0  0  0  0  0  0  0
    1.2484   -6.6344   -0.0000 C   0  0  0  0  0  0  0  0  0  0  0  0
   -6.5749    5.2908   -0.0000 C   0  0  0  0  0  0  0  0  0  0  0  0
   -3.9949    5.3027   -0.0000 C   0  0  0  0  0  0  0  0  0  0  0  0
   -7.8709    3.0318   -0.0000 C   0  0  0  0  0  0  0  0  0  0  0  0
   -7.8828    4.5418   -0.0000 C   0  0  0  0  0  0  0  0  0  0  0  0
   -6.6106    6.7770   -0.0000 C   0  0  0  0  0  0  0  0  0  0  0  0
   -4.0187    6.7889   -0.0000 C   0  0  0  0  0  0  0  0  0  0  0  0
   -9.1787    2.2947   -0.0000 C   0  0  0  0  0  0  0  0  0  0  0  0
   -9.1906    5.3027   -0.0000 C   0  0  0  0  0  0  0  0  0  0  0  0
   -5.3384    7.5499   -0.0000 C   0  0  0  0  0  0  0  0  0  0  0  0
   -2.7346    7.5618   -0.0000 C   0  0  0  0  0  0  0  0  0  0  0  0
  -10.4866    3.0556   -0.0000 C   0  0  0  0  0  0  0  0  0  0  0  0
  -10.4985    4.5656   -0.0000 C   0  0  0  0  0  0  0  0  0  0  0  0
   -9.2144    6.8127   -0.0000 C   0  0  0  0  0  0  0  0  0  0  0  0
   -1.4386    6.8484   -0.0000 C   0  0  0  0  0  0  0  0  0  0  0  0
  -11.7944    2.3185   -0.0000 O   0  0  0  0  0  0  0  0  0  0  0  0
  1  2  1  0  0  0  0
  1  3  1  0  0  0  0
  2  4  2  0  0  0  0
  2  5  1  0  0  0  0
  3  6  1  0  0  0  0
  4  7  1  0  0  0  0
  5  8  2  0  0  0  0
  6  9  1  0  0  0  0
  7 10  2  0  0  0  0
  9 11  1  0  0  0  0
  9 12  1  0  0  0  0
 10 13  1  0  0  0  0
 11 14  1  0  0  0  0
 12 15  1  0  0  0  0
 13 16  1  0  0  0  0
 13 17  1  0  0  0  0
 14 18  1  0  0  0  0
 16 19  2  0  0  0  0
 16 20  1  0  0  0  0
 17 21  1  0  0  0  0
 19 22  1  0  0  0  0
 19 23  1  0  0  0  0
 20 24  2  0  0  0  0
 21 25  1  0  0  0  0
 22 26  1  0  0  0  0
 23 27  2  0  0  0  0
 24 28  1  0  0  0  0
 25 29  2  0  0  0  0
 26 30  2  0  0  0  0
 26 31  1  0  0  0  0
 28 32  1  0  0  0  0
 29 33  1  0  0  0  0
  8 10  1  0  0  0  0
 15 18  1  0  0  0  0
 21 22  2  0  0  0  0
 24 27  1  0  0  0  0
 29 30  1  0  0  0  0
M  END
>  <MolRegNo>
43973

>  <m>
=

>  <Value>
8.69

>  <Unit>
nM

>  <Type>
Ki

>  <pValue>
8.06

>  <Ligand Efficiency>
0.33

>  <Binding Efficiency>
18.25

>  <Surface Efficiency>
24.65

>  <Assay Index>
67049

>  <Assay Category>


>  <Assay Organism>
Homo sapiens

>  <Target ID>
19

>  <Target Name>
Estrogen receptor alpha

>  <Target Organism>
Homo sapiens

>  <Target Description>
Target is a single protein chain

>  <Sequence Accession>
P03372

>  <Reference>
J Med Chem 46 (8), 1408-1418 (2003)

>  <Pubmed ID>
12672240

>  <DOI>
10.1021/jm020536q

$$$$
51132
Actelion Java MolfileCreator 1.0

 36 40  0  0  0  0  0  0  0  0999 V2000
    0.0000   -0.0000   -0.0000 O   0  0  0  0  0  0  0  0  0  0  0  0
   -0.0119   -1.4917   -0.0000 C   0  0  0  0  0  0  0  0  0  0  0  0
    1.2888   -2.2435   -0.0000 C   0  0  0  0  0  0  0  0  0  0  0  0
   -1.3246   -2.2435   -0.0000 C   0  0  0  0  0  0  0  0  0  0  0  0
    1.2769   -3.7352   -0.0000 C   0  0  0  0  0  0  0  0  0  0  0  0
    2.5776   -1.4917   -0.0000 C   0  0  0  0  0  0  0  0  0  0  0  0
   -1.3485   -3.7352   -0.0000 C   0  0  0  0  0  0  0  0  0  0  0  0
   -2.6492   -1.4797   -0.0000 C   0  0  0  0  0  0  0  0  0  0  0  0
   -0.0477   -4.4750   -0.0000 O   0  0  0  0  0  0  0  0  0  0  0  0
    2.5657   -4.4870   -0.0000 C   0  0  0  0  0  0  0  0  0  0  0  0
    3.8664   -2.2315   -0.0000 C   0  0  0  0  0  0  0  0  0  0  0  0
    2.5657    0.0239   -0.0000 C   0  0  0  0  0  0  0  0  0  0  0  0
   -2.6612   -4.4750   -0.0000 C   0  0  0  0  0  0  0  0  0  0  0  0
   -3.9619   -2.2196   -0.0000 C   0  0  0  0  0  0  0  0  0  0  0  0
    3.8545   -3.7113   -0.0000 O   0  0  0  0  0  0  0  0  0  0  0  0
    2.5538   -5.9786   -0.0000 C   0  0  0  0  0  0  0  0  0  0  0  0
    5.1552   -1.4797   -0.0000 C   0  0  0  0  0  0  0  0  0  0  0  0
    3.8545    0.7876   -0.0000 C   0  0  0  0  0  0  0  0  0  0  0  0
   -3.9738   -3.7113   -0.0000 C   0  0  0  0  0  0  0  0  0  0  0  0
    1.2291   -6.7066   -0.0000 C   0  0  0  0  0  0  0  0  0  0  0  0
    3.8187   -6.7066   -0.0000 C   0  0  0  0  0  0  0  0  0  0  0  0
    5.1433    0.0477   -0.0000 C   0  0  0  0  0  0  0  0  0  0  0  0
   -5.2865   -4.4512   -0.0000 O   0  0  0  0  0  0  0  0  0  0  0  0
    1.2172   -8.1983   -0.0000 C   0  0  0  0  0  0  0  0  0  0  0  0
    3.8068   -8.1983   -0.0000 C   0  0  0  0  0  0  0  0  0  0  0  0
    6.4440    0.7995   -0.0000 O   0  0  0  0  0  0  0  0  0  0  0  0
    2.5060   -8.9381   -0.0000 C   0  0  0  0  0  0  0  0  0  0  0  0
    2.4941  -10.4298   -0.0000 O   0  0  0  0  0  0  0  0  0  0  0  0
    3.7829  -11.1697   -0.0000 C   0  0  0  0  0  0  0  0  0  0  0  0
    3.7710  -12.6614   -0.0000 C   0  0  0  0  0  0  0  0  0  0  0  0
    2.4583  -13.4012   -0.0000 N   0  0  0  0  0  0  0  0  0  0  0  0
    1.1575  -12.6375   -0.0000 C   0  0  0  0  0  0  0  0  0  0  0  0
    2.4583  -14.8929   -0.0000 C   0  0  0  0  0  0  0  0  0  0  0  0
   -0.1551  -13.3654   -0.0000 C   0  0  0  0  0  0  0  0  0  0  0  0
    1.1337  -15.6328   -0.0000 C   0  0  0  0  0  0  0  0  0  0  0  0
   -0.1790  -14.8571   -0.0000 C   0  0  0  0  0  0  0  0  0  0  0  0
  1  2  2  0  0  0  0
  2  3  1  0  0  0  0
  2  4  1  0  0  0  0
  3  5  2  0  0  0  0
  3  6  1  0  0  0  0
  4  7  2  0  0  0  0
  4  8  1  0  0  0  0
  5  9  1  0  0  0  0
  5 10  1  0  0  0  0
  6 11  2  0  0  0  0
  6 12  1  0  0  0  0
  7 13  1  0  0  0  0
  8 14  2  0  0  0  0
 10 15  2  0  0  0  0
 10 16  1  0  0  0  0
 11 17  1  0  0  0  0
 12 18  2  0  0  0  0
 13 19  2  0  0  0  0
 16 20  2  0  0  0  0
 16 21  1  0  0  0  0
 17 22  2  0  0  0  0
 19 23  1  0  0  0  0
 20 24  1  0  0  0  0
 21 25  2  0  0  0  0
 22 26  1  0  0  0  0
 24 27  2  0  0  0  0
 27 28  1  0  0  0  0
 28 29  1  0  0  0  0
 29 30  1  0  0  0  0
 30 31  1  0  0  0  0
 31 32  1  0  0  0  0
 31 33  1  0  0  0  0
 32 34  1  0  0  0  0
 33 35  1  0  0  0  0
 34 36  1  0  0  0  0
  7  9  1  0  0  0  0
 14 19  1  0  0  0  0
 18 22  1  0  0  0  0
 25 27  1  0  0  0  0
 35 36  1  0  0  0  0
M  END
>  <MolRegNo>
51132

>  <m>
=

>  <Value>
3.9

>  <Unit>
nM

>  <Type>
Ki

>  <pValue>
8.41

>  <Ligand Efficiency>
0.32

>  <Binding Efficiency>
17.32

>  <Surface Efficiency>
8.39

>  <Assay Index>
67048

>  <Assay Category>


>  <Assay Organism>
Homo sapiens

>  <Target ID>
19

>  <Target Name>
Estrogen receptor alpha

>  <Target Organism>
Homo sapiens

>  <Target Description>
Target is a single protein chain

>  <Sequence Accession>
P03372

>  <Reference>
Bioorg Med Chem Lett 13 (8), 1475-1478 (2003)

>  <Pubmed ID>
12668015

>  <DOI>
10.1016/s0960-894x(03)00132-x

$$$$
62980
Actelion Java MolfileCreator 1.0

 20 21  0  0  0  0  0  0  0  0999 V2000
    0.0000   -0.0000   -0.0000 O   0  0  0  0  0  0  0  0  0  0  0  0
    1.2961   -0.7372   -0.0000 C   0  0  0  0  0  0  0  0  0  0  0  0
   -0.0119    1.5220   -0.0000 C   0  0  0  0  0  0  0  0  0  0  0  0
    1.2842   -2.2354   -0.0000 C   0  0  0  0  0  0  0  0  0  0  0  0
    2.5921    0.0238   -0.0000 C   0  0  0  0  0  0  0  0  0  0  0  0
    2.5802   -2.9726   -0.0000 C   0  0  0  0  0  0  0  0  0  0  0  0
    3.8763   -0.7253   -0.0000 C   0  0  0  0  0  0  0  0  0  0  0  0
    2.5683   -4.4708   -0.0000 O   0  0  0  0  0  0  0  0  0  0  0  0
    3.8644   -2.2116   -0.0000 C   0  0  0  0  0  0  0  0  0  0  0  0
    5.1723    0.0357   -0.0000 C   0  0  0  0  0  0  0  0  0  0  0  0
    3.8644   -5.2080   -0.0000 C   0  0  0  0  0  0  0  0  0  0  0  0
    6.4684   -0.7015   -0.0000 C   0  0  0  0  0  0  0  0  0  0  0  0
    7.7644    0.0595   -0.0000 C   0  0  0  0  0  0  0  0  0  0  0  0
    7.7525    1.5814   -0.0000 C   0  0  0  0  0  0  0  0  0  0  0  0
    9.0605   -0.6778   -0.0000 C   0  0  0  0  0  0  0  0  0  0  0  0
    9.0367    2.3424   -0.0000 C   0  0  0  0  0  0  0  0  0  0  0  0
   10.3565    0.0832   -0.0000 C   0  0  0  0  0  0  0  0  0  0  0  0
   10.3328    1.6052   -0.0000 C   0  0  0  0  0  0  0  0  0  0  0  0
   11.6169    2.3781   -0.0000 O   0  0  0  0  0  0  0  0  0  0  0  0
   11.6050    3.9000   -0.0000 C   0  0  0  0  0  0  0  0  0  0  0  0
  1  2  1  0  0  0  0
  1  3  1  0  0  0  0
  2  4  2  0  0  0  0
  2  5  1  0  0  0  0
  4  6  1  0  0  0  0
  5  7  2  0  0  0  0
  6  8  1  0  0  0  0
  6  9  2  0  0  0  0
  7 10  1  0  0  0  0
  8 11  1  0  0  0  0
 10 12  2  0  0  0  0
 12 13  1  0  0  0  0
 13 14  2  0  0  0  0
 13 15  1  0  0  0  0
 14 16  1  0  0  0  0
 15 17  2  0  0  0  0
 16 18  2  0  0  0  0
 18 19  1  0  0  0  0
 19 20  1  0  0  0  0
  7  9  1  0  0  0  0
 17 18  1  0  0  0  0
M  END
>  <MolRegNo>
62980

>  <m>
=

>  <Value>
261

>  <Unit>
nM

>  <Type>
Ki

>  <pValue>
6.58

>  <Ligand Efficiency>
0.45

>  <Binding Efficiency>
24.35

>  <Surface Efficiency>
23.78

>  <Assay Index>
236599

>  <Assay Category>


>  <Assay Organism>
Homo sapiens

>  <Target ID>
19

>  <Target Name>
Estrogen receptor alpha

>  <Target Organism>
Homo sapiens

>  <Target Description>
Target is a single protein chain

>  <Sequence Accession>
P03372

>  <Reference>
J Med Chem 48 (1), 287-291 (2005)

>  <Pubmed ID>
15634023

>  <DOI>
10.1021/jm0498194

$$$$
299868
Actelion Java MolfileCreator 1.0

 21 22  0  0  0  0  0  0  0  0999 V2000
    0.0000   -0.0000   -0.0000 O   0  0  0  0  0  0  0  0  0  0  0  0
    1.4947   -0.0000   -0.0000 C   0  0  0  0  0  0  0  0  0  0  0  0
   -0.7830   -1.2693   -0.0000 C   0  0  0  0  0  0  0  0  0  0  0  0
    2.2184   -1.3287   -0.0000 C   0  0  0  0  0  0  0  0  0  0  0  0
    2.2540    1.2931   -0.0000 C   0  0  0  0  0  0  0  0  0  0  0  0
   -2.3014   -1.2100   -0.0000 C   0  0  0  0  0  0  0  0  0  0  0  0
    3.7131   -1.3287   -0.0000 C   0  0  0  0  0  0  0  0  0  0  0  0
    3.7487    1.2693   -0.0000 C   0  0  0  0  0  0  0  0  0  0  0  0
    4.4724   -0.0356   -0.0000 C   0  0  0  0  0  0  0  0  0  0  0  0
    5.9671   -0.0593   -0.0000 C   0  0  0  0  0  0  0  0  0  0  0  0
    6.7501    1.2338   -0.0000 C   0  0  0  0  0  0  0  0  0  0  0  0
    8.2448    1.2219   -0.0000 C   0  0  0  0  0  0  0  0  0  0  0  0
    8.9922    2.5150   -0.0000 C   0  0  0  0  0  0  0  0  0  0  0  0
    8.9447   -0.0949   -0.0000 C   0  0  0  0  0  0  0  0  0  0  0  0
   10.4869    2.5150   -0.0000 C   0  0  0  0  0  0  0  0  0  0  0  0
   10.4395   -0.1186   -0.0000 C   0  0  0  0  0  0  0  0  0  0  0  0
   11.2461    3.8080   -0.0000 O   0  0  0  0  0  0  0  0  0  0  0  0
   11.2105    1.1982   -0.0000 C   0  0  0  0  0  0  0  0  0  0  0  0
   11.1394   -1.4354   -0.0000 O   0  0  0  0  0  0  0  0  0  0  0  0
   10.4988    5.1248   -0.0000 C   0  0  0  0  0  0  0  0  0  0  0  0
   10.3564   -2.7048   -0.0000 C   0  0  0  0  0  0  0  0  0  0  0  0
  1  2  1  0  0  0  0
  1  3  1  0  0  0  0
  2  4  2  0  0  0  0
  2  5  1  0  0  0  0
  3  6  1  0  0  0  0
  4  7  1  0  0  0  0
  5  8  2  0  0  0  0
  7  9  2  0  0  0  0
  9 10  1  0  0  0  0
 10 11  2  0  0  0  0
 11 12  1  0  0  0  0
 12 13  2  0  0  0  0
 12 14  1  0  0  0  0
 13 15  1  0  0  0  0
 14 16  2  0  0  0  0
 15 17  1  0  0  0  0
 15 18  2  0  0  0  0
 16 19  1  0  0  0  0
 17 20  1  0  0  0  0
 19 21  1  0  0  0  0
  8  9  1  0  0  0  0
 16 18  1  0  0  0  0
M  END
>  <MolRegNo>
299868

>  <m>
=

>  <Value>
380.8

>  <Unit>
nM

>  <Type>
Ki

>  <pValue>
6.42

>  <Ligand Efficiency>
0.42

>  <Binding Efficiency>
22.57

>  <Surface Efficiency>
23.18

>  <Assay Index>
236599

>  <Assay Category>


>  <Assay Organism>
Homo sapiens

>  <Target ID>
19

>  <Target Name>
Estrogen receptor alpha

>  <Target Organism>
Homo sapiens

>  <Target Description>
Target is a single protein chain

>  <Sequence Accession>
P03372

>  <Reference>
J Med Chem 48 (1), 287-291 (2005)

>  <Pubmed ID>
15634023

>  <DOI>
10.1021/jm0498194

$$$$
103658
Actelion Java MolfileCreator 1.0

 17 18  0  0  0  0  0  0  0  0999 V2000
    0.0000   -0.0000   -0.0000 O   0  0  0  0  0  0  0  0  0  0  0  0
    1.0689    0.6389   -0.0000 C   0  0  0  0  0  0  0  0  0  0  0  0
    1.0566    2.2115   -0.0000 C   0  0  0  0  0  0  0  0  0  0  0  0
    2.4081   -0.1229   -0.0000 C   0  0  0  0  0  0  0  0  0  0  0  0
    2.3958    2.9978   -0.0000 C   0  0  0  0  0  0  0  0  0  0  0  0
    3.7472    0.6634   -0.0000 C   0  0  0  0  0  0  0  0  0  0  0  0
    2.3835    4.2632   -0.0000 O   0  0  0  0  0  0  0  0  0  0  0  0
    3.7349    2.2360   -0.0000 C   0  0  0  0  0  0  0  0  0  0  0  0
    5.0864   -0.0983   -0.0000 C   0  0  0  0  0  0  0  0  0  0  0  0
    6.4256    0.7003   -0.0000 C   0  0  0  0  0  0  0  0  0  0  0  0
    7.7647   -0.0614   -0.0000 C   0  0  0  0  0  0  0  0  0  0  0  0
    9.1039    0.7249   -0.0000 C   0  0  0  0  0  0  0  0  0  0  0  0
    7.7525   -1.6095   -0.0000 C   0  0  0  0  0  0  0  0  0  0  0  0
   10.4431   -0.0369   -0.0000 C   0  0  0  0  0  0  0  0  0  0  0  0
    9.0916   -2.3712   -0.0000 C   0  0  0  0  0  0  0  0  0  0  0  0
   10.4308   -1.5849   -0.0000 C   0  0  0  0  0  0  0  0  0  0  0  0
   11.4997   -2.1992   -0.0000 O   0  0  0  0  0  0  0  0  0  0  0  0
  1  2  1  0  0  0  0
  2  3  2  0  0  0  0
  2  4  1  0  0  0  0
  3  5  1  0  0  0  0
  4  6  2  0  0  0  0
  5  7  1  0  0  0  0
  5  8  2  0  0  0  0
  6  9  1  0  0  0  0
  9 10  2  0  0  0  0
 10 11  1  0  0  0  0
 11 12  2  0  0  0  0
 11 13  1  0  0  0  0
 12 14  1  0  0  0  0
 13 15  2  0  0  0  0
 14 16  2  0  0  0  0
 16 17  1  0  0  0  0
  6  8  1  0  0  0  0
 15 16  1  0  0  0  0
M  END
>  <MolRegNo>
103658

>  <m>
=

>  <Value>
785

>  <Unit>
nM

>  <Type>
Ki

>  <pValue>
6.11

>  <Ligand Efficiency>
0.49

>  <Binding Efficiency>
26.75

>  <Surface Efficiency>
10.06

>  <Assay Index>
236599

>  <Assay Category>


>  <Assay Organism>
Homo sapiens

>  <Target ID>
19

>  <Target Name>
Estrogen receptor alpha

>  <Target Organism>
Homo sapiens

>  <Target Description>
Target is a single protein chain

>  <Sequence Accession>
P03372

>  <Reference>
J Med Chem 48 (1), 287-291 (2005)

>  <Pubmed ID>
15634023

>  <DOI>
10.1021/jm0498194

$$$$
119774
Actelion Java MolfileCreator 1.0

 20 21  0  0  0  0  0  0  0  0999 V2000
    0.0000   -0.0000   -0.0000 O   0  0  0  0  0  0  0  0  0  0  0  0
   -0.0119    1.5089   -0.0000 C   0  0  0  0  0  0  0  0  0  0  0  0
   -1.3070   -0.7366   -0.0000 C   0  0  0  0  0  0  0  0  0  0  0  0
   -1.3188    2.2694   -0.0000 C   0  0  0  0  0  0  0  0  0  0  0  0
    1.2832    2.2694   -0.0000 C   0  0  0  0  0  0  0  0  0  0  0  0
   -1.3307    3.7902   -0.0000 C   0  0  0  0  0  0  0  0  0  0  0  0
    1.2713    3.7902   -0.0000 C   0  0  0  0  0  0  0  0  0  0  0  0
   -2.6377    4.5506   -0.0000 O   0  0  0  0  0  0  0  0  0  0  0  0
   -0.0475    4.5506   -0.0000 C   0  0  0  0  0  0  0  0  0  0  0  0
    2.5545    4.5506   -0.0000 C   0  0  0  0  0  0  0  0  0  0  0  0
   -3.9446    3.8139   -0.0000 C   0  0  0  0  0  0  0  0  0  0  0  0
    3.8377    3.8139   -0.0000 C   0  0  0  0  0  0  0  0  0  0  0  0
    3.8258    2.3288   -0.0000 C   0  0  0  0  0  0  0  0  0  0  0  0
    2.5189    1.5921   -0.0000 C   0  0  0  0  0  0  0  0  0  0  0  0
    5.1209    1.6040   -0.0000 C   0  0  0  0  0  0  0  0  0  0  0  0
    2.5070    0.1069   -0.0000 C   0  0  0  0  0  0  0  0  0  0  0  0
    5.1209    0.1188   -0.0000 C   0  0  0  0  0  0  0  0  0  0  0  0
    3.8021   -0.6297   -0.0000 C   0  0  0  0  0  0  0  0  0  0  0  0
    3.8021   -2.1149   -0.0000 O   0  0  0  0  0  0  0  0  0  0  0  0
    2.4951   -2.8634   -0.0000 C   0  0  0  0  0  0  0  0  0  0  0  0
  1  2  1  0  0  0  0
  1  3  1  0  0  0  0
  2  4  2  0  0  0  0
  2  5  1  0  0  0  0
  4  6  1  0  0  0  0
  5  7  2  0  0  0  0
  6  8  1  0  0  0  0
  6  9  2  0  0  0  0
  7 10  1  0  0  0  0
  8 11  1  0  0  0  0
 10 12  2  0  0  0  0
 12 13  1  0  0  0  0
 13 14  2  0  0  0  0
 13 15  1  0  0  0  0
 14 16  1  0  0  0  0
 15 17  2  0  0  0  0
 16 18  2  0  0  0  0
 18 19  1  0  0  0  0
 19 20  1  0  0  0  0
  7  9  1  0  0  0  0
 17 18  1  0  0  0  0
M  END
>  <MolRegNo>
119774

>  <m>
=

>  <Value>
132

>  <Unit>
nM

>  <Type>
Ki

>  <pValue>
6.88

>  <Ligand Efficiency>
0.47

>  <Binding Efficiency>
25.45

>  <Surface Efficiency>
24.84

>  <Assay Index>
236599

>  <Assay Category>


>  <Assay Organism>
Homo sapiens

>  <Target ID>
19

>  <Target Name>
Estrogen receptor alpha

>  <Target Organism>
Homo sapiens

>  <Target Description>
Target is a single protein chain

>  <Sequence Accession>
P03372

>  <Reference>
J Med Chem 48 (1), 287-291 (2005)

>  <Pubmed ID>
15634023

>  <DOI>
10.1021/jm0498194

$$$$
299702
Actelion Java MolfileCreator 1.0

 21 22  0  0  0  0  0  0  0  0999 V2000
    0.0000   -0.0000   -0.0000 O   0  0  0  0  0  0  0  0  0  0  0  0
    1.0019   -1.1184   -0.0000 C   0  0  0  0  0  0  0  0  0  0  0  0
   -1.4796   -0.3029   -0.0000 C   0  0  0  0  0  0  0  0  0  0  0  0
    2.4582   -0.7922   -0.0000 C   0  0  0  0  0  0  0  0  0  0  0  0
    0.5243   -2.5281   -0.0000 C   0  0  0  0  0  0  0  0  0  0  0  0
   -2.5048    0.8155   -0.0000 C   0  0  0  0  0  0  0  0  0  0  0  0
    3.4601   -1.8990   -0.0000 C   0  0  0  0  0  0  0  0  0  0  0  0
    1.5378   -3.6465   -0.0000 C   0  0  0  0  0  0  0  0  0  0  0  0
    2.9941   -3.3087   -0.0000 C   0  0  0  0  0  0  0  0  0  0  0  0
    3.9844   -4.3921   -0.0000 C   0  0  0  0  0  0  0  0  0  0  0  0
    5.4523   -4.0659   -0.0000 C   0  0  0  0  0  0  0  0  0  0  0  0
    5.8950   -2.6213   -0.0000 C   0  0  0  0  0  0  0  0  0  0  0  0
    7.3396   -2.3184   -0.0000 C   0  0  0  0  0  0  0  0  0  0  0  0
    4.8581   -1.5145   -0.0000 C   0  0  0  0  0  0  0  0  0  0  0  0
    7.7823   -0.8621   -0.0000 C   0  0  0  0  0  0  0  0  0  0  0  0
    5.3009   -0.0816   -0.0000 C   0  0  0  0  0  0  0  0  0  0  0  0
    9.2386   -0.5476   -0.0000 O   0  0  0  0  0  0  0  0  0  0  0  0
    6.7571    0.2447   -0.0000 C   0  0  0  0  0  0  0  0  0  0  0  0
    4.2640    1.0485   -0.0000 O   0  0  0  0  0  0  0  0  0  0  0  0
   10.2405   -1.6310   -0.0000 C   0  0  0  0  0  0  0  0  0  0  0  0
    4.7067    2.4931   -0.0000 C   0  0  0  0  0  0  0  0  0  0  0  0
  1  2  1  0  0  0  0
  1  3  1  0  0  0  0
  2  4  2  0  0  0  0
  2  5  1  0  0  0  0
  3  6  1  0  0  0  0
  4  7  1  0  0  0  0
  5  8  2  0  0  0  0
  7  9  2  0  0  0  0
  9 10  1  0  0  0  0
 10 11  2  0  0  0  0
 11 12  1  0  0  0  0
 12 13  2  0  0  0  0
 12 14  1  0  0  0  0
 13 15  1  0  0  0  0
 14 16  2  0  0  0  0
 15 17  1  0  0  0  0
 15 18  2  0  0  0  0
 16 19  1  0  0  0  0
 17 20  1  0  0  0  0
 19 21  1  0  0  0  0
  8  9  1  0  0  0  0
 16 18  1  0  0  0  0
M  END
>  <MolRegNo>
299702

>  <m>
=

>  <Value>
136

>  <Unit>
nM

>  <Type>
Ki

>  <pValue>
6.87

>  <Ligand Efficiency>
0.45

>  <Binding Efficiency>
24.15

>  <Surface Efficiency>
24.8

>  <Assay Index>
236599

>  <Assay Category>


>  <Assay Organism>
Homo sapiens

>  <Target ID>
19

>  <Target Name>
Estrogen receptor alpha

>  <Target Organism>
Homo sapiens

>  <Target Description>
Target is a single protein chain

>  <Sequence Accession>
P03372

>  <Reference>
J Med Chem 48 (1), 287-291 (2005)

>  <Pubmed ID>
15634023

>  <DOI>
10.1021/jm0498194

$$$$
312215
Actelion Java MolfileCreator 1.0

 67 75  0  0  1  0  0  0  0  0999 V2000
    0.0000   -0.0000   -0.0000 S   0  0  0  0  0  0  0  0  0  0  0  0
   -0.7977   -1.3076   -0.0000 O   0  0  0  0  0  0  0  0  0  0  0  0
    1.4384    0.4054   -0.0000 O   0  0  0  0  0  0  0  0  0  0  0  0
    1.0461   -1.0723   -0.0000 O   0  0  0  0  0  0  0  0  0  0  0  0
   -0.0131    1.4907   -0.0000 C   0  0  0  0  0  0  0  0  0  0  0  0
   -1.3338    2.2491   -0.0000 C   0  0  0  0  0  0  0  0  0  0  0  0
   -2.4322    1.2030   -0.0000 N   0  0  0  0  0  0  0  0  0  0  0  0
   -3.7529    1.9614   -0.0000 C   0  0  0  0  0  0  0  0  0  0  0  0
   -3.7660    3.4914   -0.0000 O   0  0  0  0  0  0  0  0  0  0  0  0
   -5.0736    1.2292   -0.0000 C   0  0  0  0  0  0  0  0  0  0  0  0
   -6.3943    1.9745   -0.0000 C   0  0  0  0  0  0  0  0  0  0  0  0
   -7.7281    1.2423   -0.0000 C   0  0  0  0  0  0  0  0  0  0  0  0
   -7.7673   -0.4054   -0.0000 C   0  0  0  0  0  0  0  0  0  0  0  0
   -8.8396    1.8830   -0.0000 C   0  0  0  0  0  0  0  0  0  0  0  0
   -9.2319   -0.8238   -0.0000 C   0  0  0  0  0  0  0  0  0  0  0  0
   -7.0220   -1.6999   -0.0000 C   0  0  0  0  0  0  0  0  0  0  0  0
  -10.5526   -0.0262   -0.0000 C   0  0  0  0  0  0  0  0  0  0  0  0
   -9.2711   -2.3276   -0.0000 C   0  0  0  0  0  0  0  0  0  0  0  0
   -9.2188    0.3792   -0.0000 C   0  0  0  0  0  0  0  0  0  0  0  0
   -7.8196   -2.8245   -0.0000 C   0  0  0  0  0  0  0  0  0  0  0  0
  -10.5395    1.4384   -0.0000 O   0  0  0  0  0  0  0  0  0  0  0  0
  -11.8995   -0.7715   -0.0000 C   0  0  0  0  0  0  0  0  0  0  0  0
  -10.5918   -3.0729   -0.0000 C   0  0  0  0  0  0  0  0  0  0  0  0
  -11.9125   -2.2753   -0.0000 C   0  0  0  0  0  0  0  0  0  0  0  0
  -10.6049   -4.5506   -0.0000 C   0  0  0  0  0  0  0  0  0  0  0  0
  -13.2332   -3.0206   -0.0000 C   0  0  0  0  0  0  0  0  0  0  0  0
   -9.5588   -5.6097   -0.0000 O   0  0  0  0  0  0  0  0  0  0  0  0
  -11.9518   -5.2959   -0.0000 C   0  0  0  0  0  0  0  0  0  0  0  0
  -13.2725   -4.5244   -0.0000 C   0  0  0  0  0  0  0  0  0  0  0  0
  -14.5670   -2.2491   -0.0000 C   0  0  0  0  0  0  0  0  0  0  0  0
  -13.2725   -1.4907   -0.0000 C   0  0  0  0  0  0  0  0  0  0  0  0
  -14.5801   -5.2698   -0.0000 C   0  0  0  0  0  0  0  0  0  0  0  0
  -15.8877   -2.9945   -0.0000 C   0  0  0  0  0  0  0  0  0  0  0  0
  -15.9008   -4.4983   -0.0000 C   0  0  0  0  0  0  0  0  0  0  0  0
  -17.2215   -5.2436   -0.0000 O   0  0  0  0  0  0  0  0  0  0  0  0
  -17.2608   -6.7474   -0.0000 C   0  0  0  0  0  0  0  0  0  0  0  0
  -18.7384   -7.1266   -0.0000 C   0  0  0  0  0  0  0  0  0  0  0  0
  -18.7515   -8.6304   -0.0000 N   0  0  0  0  0  0  0  0  0  0  0  0
  -17.4569   -9.3757   -0.0000 C   0  0  0  0  0  0  0  0  0  0  0  0
  -20.0983   -9.3365   -0.0000 C   0  0  0  0  0  0  0  0  0  0  0  0
  -16.2670   -8.4081   -0.0000 C   0  0  0  0  0  0  0  0  0  0  0  0
  -17.2346  -10.8403   -0.0000 C   0  0  0  0  0  0  0  0  0  0  0  0
  -14.8809   -8.9442   -0.0000 C   0  0  0  0  0  0  0  0  0  0  0  0
  -15.8224  -11.3895   -0.0000 C   0  0  0  0  0  0  0  0  0  0  0  0
  -14.6716  -10.4218   -0.0000 C   0  0  0  0  0  0  0  0  0  0  0  0
  -13.7824  -10.8534   -0.0000 C   0  0  0  0  0  0  0  0  0  0  0  0
  -13.7955  -12.3571   -0.0000 C   0  0  0  0  0  0  0  0  0  0  0  0
  -12.5140  -10.0818   -0.0000 C   0  0  0  0  0  0  0  0  0  0  0  0
  -15.1162  -13.1025   -0.0000 C   0  0  0  0  0  0  0  0  0  0  0  0
  -12.5271  -13.1025   -0.0000 C   0  0  0  0  0  0  0  0  0  0  0  0
  -11.2064  -10.8272   -0.0000 C   0  0  0  0  0  0  0  0  0  0  0  0
  -15.1293  -14.6063   -0.0000 C   0  0  0  0  0  0  0  0  0  0  0  0
  -16.4239  -12.3310   -0.0000 C   0  0  0  0  0  0  0  0  0  0  0  0
  -11.2195  -12.3310   -0.0000 C   0  0  0  0  0  0  0  0  0  0  0  0
  -12.5140  -14.5801   -0.0000 C   0  0  0  0  0  0  0  0  0  0  0  0
   -9.7680  -10.3695   -0.0000 C   0  0  0  0  0  0  0  0  0  0  0  0
  -11.1933   -9.1796   -0.0000 C   0  0  0  0  0  0  0  0  0  0  0  0
  -16.4500  -15.3516   -0.0000 C   0  0  0  0  0  0  0  0  0  0  0  0
  -13.8348  -15.3255   -0.0000 C   0  0  0  0  0  0  0  0  0  0  0  0
  -17.7577  -13.0502   -0.0000 C   0  0  0  0  0  0  0  0  0  0  0  0
   -9.7811  -12.7886   -0.0000 C   0  0  0  0  0  0  0  0  0  0  0  0
   -9.8072   -8.7481   -0.0000 O   0  0  0  0  0  0  0  0  0  0  0  0
   -8.4735   -9.5980   -0.0000 C   0  0  0  0  0  0  0  0  0  0  0  0
   -8.8919  -11.5726   -0.0000 C   0  0  0  0  0  0  0  0  0  0  0  0
  -17.7838  -14.5540   -0.0000 C   0  0  0  0  0  0  0  0  0  0  0  0
   -7.1789   -8.8004   -0.0000 C   0  0  0  0  0  0  0  0  0  0  0  0
  -19.1045  -15.2993   -0.0000 O   0  0  0  0  0  0  0  0  0  0  0  0
  1  2  2  0  0  0  0
  1  3  2  0  0  0  0
  1  4  1  0  0  0  0
  1  5  1  0  0  0  0
  5  6  1  0  0  0  0
  6  7  1  0  0  0  0
  7  8  1  0  0  0  0
  8  9  2  0  0  0  0
  8 10  1  0  0  0  0
 10 11  1  0  0  0  0
 11 12  1  0  0  0  0
 12 13  1  0  0  0  0
 12 14  1  6  0  0  0
 13 15  1  0  0  0  0
 13 16  1  1  0  0  0
 15 17  1  0  0  0  0
 15 18  1  0  0  0  0
 15 19  1  1  0  0  0
 16 20  1  0  0  0  0
 17 21  1  6  0  0  0
 17 22  1  0  0  0  0
 23 18  1  6  0  0  0
 24 22  1  1  0  0  0
 23 25  1  0  0  0  0
 24 26  1  0  0  0  0
 25 27  1  6  0  0  0
 25 28  1  0  0  0  0
 26 29  1  0  0  0  0
 26 30  1  0  0  0  0
 26 31  1  1  0  0  0
 29 32  1  6  0  0  0
 30 33  1  0  0  0  0
 32 34  1  0  0  0  0
 34 35  1  0  0  0  0
 35 36  1  0  0  0  0
 36 37  1  0  0  0  0
 37 38  1  0  0  0  0
 38 39  1  0  0  0  0
 38 40  1  0  0  0  0
 39 41  2  0  0  0  0
 39 42  1  0  0  0  0
 41 43  1  0  0  0  0
 42 44  2  0  0  0  0
 43 45  2  0  0  0  0
 46 45  1  1  0  0  0
 46 47  1  0  0  0  0
 46 48  1  0  0  0  0
 47 49  2  0  0  0  0
 47 50  1  0  0  0  0
 48 51  1  0  0  0  0
 49 52  1  0  0  0  0
 49 53  1  0  0  0  0
 50 54  1  0  0  0  0
 50 55  1  6  0  0  0
 51 56  1  0  0  0  0
 51 57  1  1  0  0  0
 52 58  2  0  0  0  0
 52 59  1  0  0  0  0
 53 60  1  0  0  0  0
 54 61  1  1  0  0  0
 56 62  1  1  0  0  0
 56 63  1  0  0  0  0
 56 64  1  0  0  0  0
 58 65  1  0  0  0  0
 63 66  3  0  0  0  0
 65 67  2  0  0  0  0
 18 20  1  1  0  0  0
 23 24  1  0  0  0  0
 28 29  1  0  0  0  0
 33 34  1  0  0  0  0
 44 45  1  0  0  0  0
 51 54  1  0  0  0  0
 55 59  1  0  0  0  0
 60 65  1  0  0  0  0
 61 64  1  0  0  0  0
M  END
>  <MolRegNo>
312215

>  <m>
=

>  <Value>
10

>  <Unit>
nM

>  <Type>
Ki

>  <pValue>
8

>  <Ligand Efficiency>
0.16

>  <Binding Efficiency>
8.48

>  <Surface Efficiency>
4.61

>  <Assay Index>
235403

>  <Assay Category>


>  <Assay Organism>
Homo sapiens

>  <Target ID>
19

>  <Target Name>
Estrogen receptor alpha

>  <Target Organism>
Homo sapiens

>  <Target Description>
Target is a single protein chain

>  <Sequence Accession>
P03372

>  <Reference>
J Med Chem 47 (17), 4213-4230 (2004)

>  <Pubmed ID>
15293993

>  <DOI>
10.1021/jm0400045

$$$$
312156
Actelion Java MolfileCreator 1.0

 33 37  0  0  1  0  0  0  0  0999 V2000
    0.0000   -0.0000   -0.0000 O   0  0  0  0  0  0  0  0  0  0  0  0
    1.2883    0.7565   -0.0000 C   0  0  0  0  0  0  0  0  0  0  0  0
    2.5767   -0.0000   -0.0000 C   0  0  0  0  0  0  0  0  0  0  0  0
    1.3002    2.2694   -0.0000 C   0  0  0  0  0  0  0  0  0  0  0  0
    3.8650    0.7565   -0.0000 C   0  0  0  0  0  0  0  0  0  0  0  0
    2.5885    3.0140   -0.0000 C   0  0  0  0  0  0  0  0  0  0  0  0
    3.8532    2.2694   -0.0000 C   0  0  0  0  0  0  0  0  0  0  0  0
    5.1534    0.0355   -0.0000 C   0  0  0  0  0  0  0  0  0  0  0  0
    5.1416    3.0258   -0.0000 C   0  0  0  0  0  0  0  0  0  0  0  0
    6.4417    0.7919   -0.0000 C   0  0  0  0  0  0  0  0  0  0  0  0
    5.1297    4.5388   -0.0000 C   0  0  0  0  0  0  0  0  0  0  0  0
    6.4063    2.2812   -0.0000 C   0  0  0  0  0  0  0  0  0  0  0  0
    3.8178    5.2952   -0.0000 C   0  0  0  0  0  0  0  0  0  0  0  0
    6.3944    5.2952   -0.0000 C   0  0  0  0  0  0  0  0  0  0  0  0
    7.6946    3.0377   -0.0000 C   0  0  0  0  0  0  0  0  0  0  0  0
    3.8769    6.8081   -0.0000 C   0  0  0  0  0  0  0  0  0  0  0  0
    2.4585    4.6215   -0.0000 C   0  0  0  0  0  0  0  0  0  0  0  0
    7.6828    4.5624   -0.0000 C   0  0  0  0  0  0  0  0  0  0  0  0
    9.1130    2.6003   -0.0000 C   0  0  0  0  0  0  0  0  0  0  0  0
    2.5885    7.6355   -0.0000 C   0  0  0  0  0  0  0  0  0  0  0  0
    1.1938    5.4489   -0.0000 C   0  0  0  0  0  0  0  0  0  0  0  0
    9.1012    5.0234   -0.0000 C   0  0  0  0  0  0  0  0  0  0  0  0
    7.6710    6.0753   -0.0000 C   0  0  0  0  0  0  0  0  0  0  0  0
    9.9876    3.8178   -0.0000 C   0  0  0  0  0  0  0  0  0  0  0  0
    1.2529    6.9618   -0.0000 C   0  0  0  0  0  0  0  0  0  0  0  0
    9.4794    6.4890   -0.0000 O   0  0  0  0  0  0  0  0  0  0  0  0
   10.5432    5.4252   -0.0000 C   0  0  0  0  0  0  0  0  0  0  0  0
   -0.0355    7.7655   -0.0000 N   0  0  0  0  0  0  0  0  0  0  0  0
   11.9615    5.8389   -0.0000 C   0  0  0  0  0  0  0  0  0  0  0  0
    0.3428    9.2312   -0.0000 C   0  0  0  0  0  0  0  0  0  0  0  0
   -1.3474    7.0445   -0.0000 C   0  0  0  0  0  0  0  0  0  0  0  0
   -0.7328   10.3304   -0.0000 O   0  0  0  0  0  0  0  0  0  0  0  0
    1.8320    9.2666   -0.0000 C   0  0  0  0  0  0  0  0  0  0  0  0
  1  2  2  0  0  0  0
  2  3  1  0  0  0  0
  2  4  1  0  0  0  0
  3  5  2  0  0  0  0
  4  6  1  0  0  0  0
  5  7  1  0  0  0  0
  5  8  1  0  0  0  0
  7  9  2  0  0  0  0
  8 10  1  0  0  0  0
  9 11  1  0  0  0  0
  9 12  1  0  0  0  0
 11 13  1  1  0  0  0
 11 14  1  0  0  0  0
 12 15  1  0  0  0  0
 13 16  2  0  0  0  0
 13 17  1  0  0  0  0
 14 18  1  0  0  0  0
 15 19  1  1  0  0  0
 16 20  1  0  0  0  0
 17 21  2  0  0  0  0
 18 22  1  0  0  0  0
 18 23  1  1  0  0  0
 19 24  1  0  0  0  0
 20 25  2  0  0  0  0
 22 26  1  0  0  0  0
 22 27  1  6  0  0  0
 25 28  1  0  0  0  0
 27 29  3  0  0  0  0
 28 30  1  0  0  0  0
 28 31  1  0  0  0  0
 30 32  2  0  0  0  0
 30 33  1  0  0  0  0
  6  7  1  0  0  0  0
 12 10  1  6  0  0  0
 15 18  1  0  0  0  0
 21 25  1  0  0  0  0
 22 24  1  0  0  0  0
M  END
>  <MolRegNo>
312156

>  <m>
=

>  <Value>
34

>  <Unit>
nM

>  <Type>
Ki

>  <pValue>
7.47

>  <Ligand Efficiency>
0.31

>  <Binding Efficiency>
16.84

>  <Surface Efficiency>
12.96

>  <Assay Index>
235403

>  <Assay Category>


>  <Assay Organism>
Homo sapiens

>  <Target ID>
19

>  <Target Name>
Estrogen receptor alpha

>  <Target Organism>
Homo sapiens

>  <Target Description>
Target is a single protein chain

>  <Sequence Accession>
P03372

>  <Reference>
J Med Chem 47 (17), 4213-4230 (2004)

>  <Pubmed ID>
15293993

>  <DOI>
10.1021/jm0400045

$$$$
312088
Actelion Java MolfileCreator 1.0

 67 75  0  0  1  0  0  0  0  0999 V2000
    0.0000   -0.0000   -0.0000 O   0  0  0  0  0  0  0  0  0  0  0  0
    1.2956    0.7774   -0.0000 C   0  0  0  0  0  0  0  0  0  0  0  0
    2.5782    0.0130   -0.0000 C   0  0  0  0  0  0  0  0  0  0  0  0
    1.2826    2.2932   -0.0000 C   0  0  0  0  0  0  0  0  0  0  0  0
    3.8738    0.7903   -0.0000 C   0  0  0  0  0  0  0  0  0  0  0  0
    2.5653    3.0317   -0.0000 C   0  0  0  0  0  0  0  0  0  0  0  0
    3.8609    2.3191   -0.0000 C   0  0  0  0  0  0  0  0  0  0  0  0
    5.1565    0.0648   -0.0000 C   0  0  0  0  0  0  0  0  0  0  0  0
    5.1306    3.0706   -0.0000 C   0  0  0  0  0  0  0  0  0  0  0  0
    6.4650    0.8421   -0.0000 C   0  0  0  0  0  0  0  0  0  0  0  0
    5.1176    4.5994   -0.0000 C   0  0  0  0  0  0  0  0  0  0  0  0
    6.4262    2.3191   -0.0000 C   0  0  0  0  0  0  0  0  0  0  0  0
    4.2366    5.0787   -0.0000 C   0  0  0  0  0  0  0  0  0  0  0  0
    6.4132    5.3767   -0.0000 C   0  0  0  0  0  0  0  0  0  0  0  0
    7.7088    3.0965   -0.0000 C   0  0  0  0  0  0  0  0  0  0  0  0
    3.9904    6.5687   -0.0000 C   0  0  0  0  0  0  0  0  0  0  0  0
    3.0187    4.1330   -0.0000 C   0  0  0  0  0  0  0  0  0  0  0  0
    7.6958    4.6253   -0.0000 C   0  0  0  0  0  0  0  0  0  0  0  0
    9.1340    2.6560   -0.0000 C   0  0  0  0  0  0  0  0  0  0  0  0
    2.5782    7.1387   -0.0000 C   0  0  0  0  0  0  0  0  0  0  0  0
    1.6195    4.7289   -0.0000 C   0  0  0  0  0  0  0  0  0  0  0  0
    9.1210    5.0917   -0.0000 C   0  0  0  0  0  0  0  0  0  0  0  0
    7.7088    6.2577   -0.0000 C   0  0  0  0  0  0  0  0  0  0  0  0
    9.9891    3.8738   -0.0000 C   0  0  0  0  0  0  0  0  0  0  0  0
    1.3733    6.2059   -0.0000 C   0  0  0  0  0  0  0  0  0  0  0  0
    9.0821    6.6982   -0.0000 O   0  0  0  0  0  0  0  0  0  0  0  0
   10.4166    5.8691   -0.0000 C   0  0  0  0  0  0  0  0  0  0  0  0
    0.0518    6.9833   -0.0000 N   0  0  0  0  0  0  0  0  0  0  0  0
   11.6992    6.6594   -0.0000 C   0  0  0  0  0  0  0  0  0  0  0  0
    0.0259    8.5121   -0.0000 C   0  0  0  0  0  0  0  0  0  0  0  0
   -1.2826    6.2577   -0.0000 C   0  0  0  0  0  0  0  0  0  0  0  0
    1.2956    9.3153   -0.0000 O   0  0  0  0  0  0  0  0  0  0  0  0
   -1.3215    9.1987   -0.0000 C   0  0  0  0  0  0  0  0  0  0  0  0
   -1.3345   10.7146   -0.0000 C   0  0  0  0  0  0  0  0  0  0  0  0
   -2.4228   11.7899   -0.0000 C   0  0  0  0  0  0  0  0  0  0  0  0
   -3.7313   11.0385   -0.0000 N   0  0  0  0  0  0  0  0  0  0  0  0
   -2.4357   13.3187   -0.0000 C   0  0  0  0  0  0  0  0  0  0  0  0
   -5.0528   11.8029   -0.0000 C   0  0  0  0  0  0  0  0  0  0  0  0
   -3.7831   14.0961   -0.0000 O   0  0  0  0  0  0  0  0  0  0  0  0
   -1.1531   14.0961   -0.0000 O   0  0  0  0  0  0  0  0  0  0  0  0
   -5.0658   13.3446   -0.0000 O   0  0  0  0  0  0  0  0  0  0  0  0
   -6.3743   11.0514   -0.0000 C   0  0  0  0  0  0  0  0  0  0  0  0
   -7.6958   11.8288   -0.0000 C   0  0  0  0  0  0  0  0  0  0  0  0
   -9.0044   11.0644   -0.0000 C   0  0  0  0  0  0  0  0  0  0  0  0
   -9.0174    9.4319   -0.0000 C   0  0  0  0  0  0  0  0  0  0  0  0
  -10.1057   11.7122   -0.0000 C   0  0  0  0  0  0  0  0  0  0  0  0
  -10.4814    9.0044   -0.0000 C   0  0  0  0  0  0  0  0  0  0  0  0
   -8.3048    8.1493   -0.0000 C   0  0  0  0  0  0  0  0  0  0  0  0
  -11.8029    9.7947   -0.0000 C   0  0  0  0  0  0  0  0  0  0  0  0
  -10.5332    7.4885   -0.0000 C   0  0  0  0  0  0  0  0  0  0  0  0
  -10.4684   10.2093   -0.0000 C   0  0  0  0  0  0  0  0  0  0  0  0
   -9.0951    7.0092   -0.0000 C   0  0  0  0  0  0  0  0  0  0  0  0
  -11.8158   11.2587   -0.0000 O   0  0  0  0  0  0  0  0  0  0  0  0
  -13.1374    9.0692   -0.0000 C   0  0  0  0  0  0  0  0  0  0  0  0
  -11.8418    6.7760   -0.0000 C   0  0  0  0  0  0  0  0  0  0  0  0
  -13.1762    7.5663   -0.0000 C   0  0  0  0  0  0  0  0  0  0  0  0
  -11.8547    5.2731   -0.0000 C   0  0  0  0  0  0  0  0  0  0  0  0
  -14.4977    6.8148   -0.0000 C   0  0  0  0  0  0  0  0  0  0  0  0
  -10.8053    4.2236   -0.0000 O   0  0  0  0  0  0  0  0  0  0  0  0
  -13.1762    4.5475   -0.0000 C   0  0  0  0  0  0  0  0  0  0  0  0
  -14.5107    5.3249   -0.0000 C   0  0  0  0  0  0  0  0  0  0  0  0
  -15.8192    7.5922   -0.0000 C   0  0  0  0  0  0  0  0  0  0  0  0
  -14.5107    8.3436   -0.0000 C   0  0  0  0  0  0  0  0  0  0  0  0
  -15.8322    4.5735   -0.0000 C   0  0  0  0  0  0  0  0  0  0  0  0
  -17.1407    6.8408   -0.0000 C   0  0  0  0  0  0  0  0  0  0  0  0
  -17.1537    5.3508   -0.0000 C   0  0  0  0  0  0  0  0  0  0  0  0
  -18.4363    4.5994   -0.0000 O   0  0  0  0  0  0  0  0  0  0  0  0
  1  2  2  0  0  0  0
  2  3  1  0  0  0  0
  2  4  1  0  0  0  0
  3  5  2  0  0  0  0
  4  6  1  0  0  0  0
  5  7  1  0  0  0  0
  5  8  1  0  0  0  0
  7  9  2  0  0  0  0
  8 10  1  0  0  0  0
  9 11  1  0  0  0  0
  9 12  1  0  0  0  0
 11 13  1  1  0  0  0
 11 14  1  0  0  0  0
 12 15  1  0  0  0  0
 13 16  2  0  0  0  0
 13 17  1  0  0  0  0
 14 18  1  0  0  0  0
 15 19  1  1  0  0  0
 16 20  1  0  0  0  0
 17 21  2  0  0  0  0
 18 22  1  0  0  0  0
 18 23  1  1  0  0  0
 19 24  1  0  0  0  0
 20 25  2  0  0  0  0
 22 26  1  1  0  0  0
 22 27  1  0  0  0  0
 25 28  1  0  0  0  0
 27 29  3  0  0  0  0
 28 30  1  0  0  0  0
 28 31  1  0  0  0  0
 30 32  2  0  0  0  0
 30 33  1  0  0  0  0
 33 34  1  0  0  0  0
 34 35  1  0  0  0  0
 35 36  1  6  0  0  0
 35 37  1  0  0  0  0
 36 38  1  0  0  0  0
 37 39  2  0  0  0  0
 37 40  1  0  0  0  0
 38 41  2  0  0  0  0
 38 42  1  0  0  0  0
 42 43  1  0  0  0  0
 43 44  1  0  0  0  0
 44 45  1  0  0  0  0
 44 46  1  6  0  0  0
 45 47  1  0  0  0  0
 45 48  1  1  0  0  0
 47 49  1  0  0  0  0
 47 50  1  0  0  0  0
 47 51  1  1  0  0  0
 48 52  1  0  0  0  0
 49 53  1  6  0  0  0
 49 54  1  0  0  0  0
 55 50  1  6  0  0  0
 56 54  1  1  0  0  0
 55 57  1  0  0  0  0
 56 58  1  0  0  0  0
 57 59  1  6  0  0  0
 57 60  1  0  0  0  0
 58 61  1  0  0  0  0
 58 62  1  0  0  0  0
 58 63  1  1  0  0  0
 61 64  1  6  0  0  0
 62 65  1  0  0  0  0
 64 66  1  0  0  0  0
 66 67  1  6  0  0  0
  6  7  1  0  0  0  0
 12 10  1  6  0  0  0
 15 18  1  0  0  0  0
 21 25  1  0  0  0  0
 22 24  1  0  0  0  0
 50 52  1  1  0  0  0
 55 56  1  0  0  0  0
 60 61  1  0  0  0  0
 65 66  1  0  0  0  0
M  END
>  <MolRegNo>
312088

>  <m>
=

>  <Value>
72

>  <Unit>
nM

>  <Type>
Ki

>  <pValue>
7.14

>  <Ligand Efficiency>
0.15

>  <Binding Efficiency>
7.75

>  <Surface Efficiency>
3.87

>  <Assay Index>
235403

>  <Assay Category>


>  <Assay Organism>
Homo sapiens

>  <Target ID>
19

>  <Target Name>
Estrogen receptor alpha

>  <Target Organism>
Homo sapiens

>  <Target Description>
Target is a single protein chain

>  <Sequence Accession>
P03372

>  <Reference>
J Med Chem 47 (17), 4213-4230 (2004)

>  <Pubmed ID>
15293993

>  <DOI>
10.1021/jm0400045

$$$$
312089
Actelion Java MolfileCreator 1.0

 65 73  0  0  1  0  0  0  0  0999 V2000
    0.0000   -0.0000   -0.0000 O   0  0  0  0  0  0  0  0  0  0  0  0
    1.3052    0.7637   -0.0000 C   0  0  0  0  0  0  0  0  0  0  0  0
    2.6104    0.0139   -0.0000 C   0  0  0  0  0  0  0  0  0  0  0  0
    1.2913    2.2772   -0.0000 C   0  0  0  0  0  0  0  0  0  0  0  0
    3.8879    0.7915   -0.0000 C   0  0  0  0  0  0  0  0  0  0  0  0
    2.5966    3.0409   -0.0000 C   0  0  0  0  0  0  0  0  0  0  0  0
    3.8879    2.3050   -0.0000 C   0  0  0  0  0  0  0  0  0  0  0  0
    5.1792    0.0417   -0.0000 C   0  0  0  0  0  0  0  0  0  0  0  0
    5.1654    3.0548   -0.0000 C   0  0  0  0  0  0  0  0  0  0  0  0
    6.4567    0.8192   -0.0000 C   0  0  0  0  0  0  0  0  0  0  0  0
    5.1515    4.5822   -0.0000 C   0  0  0  0  0  0  0  0  0  0  0  0
    6.4567    2.3189   -0.0000 C   0  0  0  0  0  0  0  0  0  0  0  0
    4.2628    5.0682   -0.0000 C   0  0  0  0  0  0  0  0  0  0  0  0
    6.4428    5.3459   -0.0000 C   0  0  0  0  0  0  0  0  0  0  0  0
    7.7341    3.0825   -0.0000 C   0  0  0  0  0  0  0  0  0  0  0  0
    4.0129    6.5678   -0.0000 C   0  0  0  0  0  0  0  0  0  0  0  0
    3.0687    4.1239   -0.0000 C   0  0  0  0  0  0  0  0  0  0  0  0
    7.7203    4.6099   -0.0000 C   0  0  0  0  0  0  0  0  0  0  0  0
    9.1504    2.6243   -0.0000 C   0  0  0  0  0  0  0  0  0  0  0  0
    2.5966    7.1371   -0.0000 C   0  0  0  0  0  0  0  0  0  0  0  0
    1.6385    4.7071   -0.0000 C   0  0  0  0  0  0  0  0  0  0  0  0
    9.1366    5.0959   -0.0000 C   0  0  0  0  0  0  0  0  0  0  0  0
    7.7341    6.2623   -0.0000 C   0  0  0  0  0  0  0  0  0  0  0  0
   10.0113    3.8740   -0.0000 C   0  0  0  0  0  0  0  0  0  0  0  0
    1.4024    6.2206   -0.0000 C   0  0  0  0  0  0  0  0  0  0  0  0
    9.1088    6.7066   -0.0000 O   0  0  0  0  0  0  0  0  0  0  0  0
   10.4140    5.8874   -0.0000 C   0  0  0  0  0  0  0  0  0  0  0  0
    0.0694    6.9982   -0.0000 N   0  0  0  0  0  0  0  0  0  0  0  0
   11.6915    6.6789   -0.0000 C   0  0  0  0  0  0  0  0  0  0  0  0
    0.0833    8.7755   -0.0000 C   0  0  0  0  0  0  0  0  0  0  0  0
   -1.2636    6.2623   -0.0000 C   0  0  0  0  0  0  0  0  0  0  0  0
   -1.3191    9.3726   -0.0000 O   0  0  0  0  0  0  0  0  0  0  0  0
    1.1386    9.8447   -0.0000 C   0  0  0  0  0  0  0  0  0  0  0  0
    1.1247   11.3721   -0.0000 N   0  0  0  0  0  0  0  0  0  0  0  0
   -0.1805   12.1497   -0.0000 C   0  0  0  0  0  0  0  0  0  0  0  0
   -1.7079   12.1775   -0.0000 O   0  0  0  0  0  0  0  0  0  0  0  0
   -0.1944   13.6771   -0.0000 O   0  0  0  0  0  0  0  0  0  0  0  0
    1.1108   14.4408   -0.0000 C   0  0  0  0  0  0  0  0  0  0  0  0
    2.3883   13.7048   -0.0000 C   0  0  0  0  0  0  0  0  0  0  0  0
    1.0969   15.9682   -0.0000 C   0  0  0  0  0  0  0  0  0  0  0  0
    3.6657   14.4685   -0.0000 C   0  0  0  0  0  0  0  0  0  0  0  0
    2.3744   16.7318   -0.0000 C   0  0  0  0  0  0  0  0  0  0  0  0
    3.6518   15.9959   -0.0000 C   0  0  0  0  0  0  0  0  0  0  0  0
    4.9710   13.7326   -0.0000 C   0  0  0  0  0  0  0  0  0  0  0  0
    4.9571   16.7596   -0.0000 C   0  0  0  0  0  0  0  0  0  0  0  0
    3.6380   17.5233   -0.0000 C   0  0  0  0  0  0  0  0  0  0  0  0
    6.2623   14.4685   -0.0000 C   0  0  0  0  0  0  0  0  0  0  0  0
    6.2484   15.9959   -0.0000 C   0  0  0  0  0  0  0  0  0  0  0  0
    4.9571   18.2870   -0.0000 C   0  0  0  0  0  0  0  0  0  0  0  0
    7.3176   13.4271   -0.0000 O   0  0  0  0  0  0  0  0  0  0  0  0
    7.5536   16.7596   -0.0000 C   0  0  0  0  0  0  0  0  0  0  0  0
    6.2623   19.0507   -0.0000 C   0  0  0  0  0  0  0  0  0  0  0  0
    7.5536   18.2731   -0.0000 C   0  0  0  0  0  0  0  0  0  0  0  0
    8.9699   16.2736   -0.0000 C   0  0  0  0  0  0  0  0  0  0  0  0
    6.2623   20.4809   -0.0000 O   0  0  0  0  0  0  0  0  0  0  0  0
    8.9838   18.7313   -0.0000 C   0  0  0  0  0  0  0  0  0  0  0  0
    7.5675   19.4811   -0.0000 C   0  0  0  0  0  0  0  0  0  0  0  0
    9.7614   17.4400   -0.0000 C   0  0  0  0  0  0  0  0  0  0  0  0
    8.9977   20.3559   -0.0000 C   0  0  0  0  0  0  0  0  0  0  0  0
   10.2752   21.1335   -0.0000 C   0  0  0  0  0  0  0  0  0  0  0  0
    7.8869   21.0224   -0.0000 C   0  0  0  0  0  0  0  0  0  0  0  0
   11.5804   20.4115   -0.0000 C   0  0  0  0  0  0  0  0  0  0  0  0
   12.8578   21.1613   -0.0000 C   0  0  0  0  0  0  0  0  0  0  0  0
   12.8301   22.7164   -0.0000 O   0  0  0  0  0  0  0  0  0  0  0  0
   14.1492   20.4392   -0.0000 O   0  0  0  0  0  0  0  0  0  0  0  0
  1  2  2  0  0  0  0
  2  3  1  0  0  0  0
  2  4  1  0  0  0  0
  3  5  2  0  0  0  0
  4  6  1  0  0  0  0
  5  7  1  0  0  0  0
  5  8  1  0  0  0  0
  7  9  2  0  0  0  0
  8 10  1  0  0  0  0
  9 11  1  0  0  0  0
  9 12  1  0  0  0  0
 11 13  1  1  0  0  0
 11 14  1  0  0  0  0
 12 15  1  0  0  0  0
 13 16  2  0  0  0  0
 13 17  1  0  0  0  0
 14 18  1  0  0  0  0
 15 19  1  1  0  0  0
 16 20  1  0  0  0  0
 17 21  2  0  0  0  0
 18 22  1  0  0  0  0
 18 23  1  1  0  0  0
 19 24  1  0  0  0  0
 20 25  2  0  0  0  0
 22 26  1  1  0  0  0
 22 27  1  0  0  0  0
 25 28  1  0  0  0  0
 27 29  3  0  0  0  0
 28 30  1  0  0  0  0
 28 31  1  0  0  0  0
 30 32  2  0  0  0  0
 30 33  1  0  0  0  0
 33 34  1  0  0  0  0
 34 35  1  0  0  0  0
 35 36  2  0  0  0  0
 35 37  1  0  0  0  0
 37 38  1  0  0  0  0
 38 39  1  0  0  0  0
 38 40  1  0  0  0  0
 41 39  1  6  0  0  0
 40 42  1  0  0  0  0
 41 43  1  0  0  0  0
 41 44  1  0  0  0  0
 43 45  1  0  0  0  0
 43 46  1  1  0  0  0
 44 47  1  0  0  0  0
 48 45  1  6  0  0  0
 45 49  1  1  0  0  0
 47 50  1  6  0  0  0
 48 51  1  0  0  0  0
 49 52  1  0  0  0  0
 51 53  1  0  0  0  0
 51 54  1  1  0  0  0
 52 55  1  6  0  0  0
 53 56  1  0  0  0  0
 53 57  1  1  0  0  0
 54 58  1  0  0  0  0
 56 59  1  0  0  0  0
 59 60  1  0  0  0  0
 59 61  1  6  0  0  0
 60 62  1  0  0  0  0
 62 63  1  0  0  0  0
 63 64  2  0  0  0  0
 63 65  1  0  0  0  0
  6  7  1  0  0  0  0
 12 10  1  6  0  0  0
 15 18  1  0  0  0  0
 21 25  1  0  0  0  0
 22 24  1  0  0  0  0
 42 43  1  0  0  0  0
 47 48  1  0  0  0  0
 52 53  1  0  0  0  0
 56 58  1  1  0  0  0
M  END
>  <MolRegNo>
312089

>  <m>
=

>  <Value>
11

>  <Unit>
nM

>  <Type>
Ki

>  <pValue>
7.96

>  <Ligand Efficiency>
0.17

>  <Binding Efficiency>
8.91

>  <Surface Efficiency>
4.58

>  <Assay Index>
235403

>  <Assay Category>


>  <Assay Organism>
Homo sapiens

>  <Target ID>
19

>  <Target Name>
Estrogen receptor alpha

>  <Target Organism>
Homo sapiens

>  <Target Description>
Target is a single protein chain

>  <Sequence Accession>
P03372

>  <Reference>
J Med Chem 47 (17), 4213-4230 (2004)

>  <Pubmed ID>
15293993

>  <DOI>
10.1021/jm0400045

$$$$
312117
Actelion Java MolfileCreator 1.0

 61 69  0  0  1  0  0  0  0  0999 V2000
    0.0000   -0.0000   -0.0000 O   0  0  0  0  0  0  0  0  0  0  0  0
    1.3121    0.7590   -0.0000 C   0  0  0  0  0  0  0  0  0  0  0  0
    2.5985    0.0129   -0.0000 C   0  0  0  0  0  0  0  0  0  0  0  0
    1.3121    2.3155   -0.0000 C   0  0  0  0  0  0  0  0  0  0  0  0
    3.8977    0.7847   -0.0000 C   0  0  0  0  0  0  0  0  0  0  0  0
    2.5985    3.0487   -0.0000 C   0  0  0  0  0  0  0  0  0  0  0  0
    3.8848    2.3155   -0.0000 C   0  0  0  0  0  0  0  0  0  0  0  0
    5.1841    0.0515   -0.0000 C   0  0  0  0  0  0  0  0  0  0  0  0
    5.1712    3.0744   -0.0000 C   0  0  0  0  0  0  0  0  0  0  0  0
    6.4962    0.8104   -0.0000 C   0  0  0  0  0  0  0  0  0  0  0  0
    5.1584    4.5924   -0.0000 C   0  0  0  0  0  0  0  0  0  0  0  0
    6.4576    2.3155   -0.0000 C   0  0  0  0  0  0  0  0  0  0  0  0
    4.2579    5.0812   -0.0000 C   0  0  0  0  0  0  0  0  0  0  0  0
    6.4447    5.3642   -0.0000 C   0  0  0  0  0  0  0  0  0  0  0  0
    7.7568    3.1002   -0.0000 C   0  0  0  0  0  0  0  0  0  0  0  0
    3.0616    4.1421   -0.0000 C   0  0  0  0  0  0  0  0  0  0  0  0
    4.0135    6.5862   -0.0000 C   0  0  0  0  0  0  0  0  0  0  0  0
    7.7440    4.6181   -0.0000 C   0  0  0  0  0  0  0  0  0  0  0  0
    9.1976    2.6499   -0.0000 C   0  0  0  0  0  0  0  0  0  0  0  0
    1.6466    4.7081   -0.0000 C   0  0  0  0  0  0  0  0  0  0  0  0
    2.5985    7.1522   -0.0000 C   0  0  0  0  0  0  0  0  0  0  0  0
    9.1847    5.0940   -0.0000 C   0  0  0  0  0  0  0  0  0  0  0  0
    7.7568    6.2646   -0.0000 C   0  0  0  0  0  0  0  0  0  0  0  0
   10.0594    3.8720   -0.0000 C   0  0  0  0  0  0  0  0  0  0  0  0
    1.4021    6.2389   -0.0000 C   0  0  0  0  0  0  0  0  0  0  0  0
    9.1461    6.7149   -0.0000 O   0  0  0  0  0  0  0  0  0  0  0  0
   10.4711    5.8787   -0.0000 C   0  0  0  0  0  0  0  0  0  0  0  0
    0.0772    7.0107   -0.0000 N   0  0  0  0  0  0  0  0  0  0  0  0
   11.7575    6.6634   -0.0000 C   0  0  0  0  0  0  0  0  0  0  0  0
    0.0772    8.5415   -0.0000 C   0  0  0  0  0  0  0  0  0  0  0  0
   -1.2606    6.2646   -0.0000 C   0  0  0  0  0  0  0  0  0  0  0  0
    1.3636    9.3005   -0.0000 C   0  0  0  0  0  0  0  0  0  0  0  0
    1.3507   10.8313   -0.0000 O   0  0  0  0  0  0  0  0  0  0  0  0
    2.6628   11.5902   -0.0000 C   0  0  0  0  0  0  0  0  0  0  0  0
    3.9492   10.8570   -0.0000 C   0  0  0  0  0  0  0  0  0  0  0  0
    2.6499   13.1210   -0.0000 C   0  0  0  0  0  0  0  0  0  0  0  0
    5.2484   11.6160   -0.0000 C   0  0  0  0  0  0  0  0  0  0  0  0
    3.9363   13.9057   -0.0000 C   0  0  0  0  0  0  0  0  0  0  0  0
    5.2355   13.1467   -0.0000 C   0  0  0  0  0  0  0  0  0  0  0  0
    6.5605   10.8699   -0.0000 C   0  0  0  0  0  0  0  0  0  0  0  0
    6.5476   13.9186   -0.0000 C   0  0  0  0  0  0  0  0  0  0  0  0
    5.2227   14.6775   -0.0000 C   0  0  0  0  0  0  0  0  0  0  0  0
    7.8597   11.6417   -0.0000 C   0  0  0  0  0  0  0  0  0  0  0  0
    7.8469   13.1725   -0.0000 C   0  0  0  0  0  0  0  0  0  0  0  0
    6.5476   15.4622   -0.0000 C   0  0  0  0  0  0  0  0  0  0  0  0
    8.9274   10.5740   -0.0000 O   0  0  0  0  0  0  0  0  0  0  0  0
    9.1333   13.9057   -0.0000 C   0  0  0  0  0  0  0  0  0  0  0  0
    7.8726   16.2212   -0.0000 C   0  0  0  0  0  0  0  0  0  0  0  0
    9.1718   15.4365   -0.0000 C   0  0  0  0  0  0  0  0  0  0  0  0
   10.5740   13.4555   -0.0000 C   0  0  0  0  0  0  0  0  0  0  0  0
    7.8597   17.6490   -0.0000 O   0  0  0  0  0  0  0  0  0  0  0  0
   10.6126   15.9124   -0.0000 C   0  0  0  0  0  0  0  0  0  0  0  0
    9.1847   16.6585   -0.0000 C   0  0  0  0  0  0  0  0  0  0  0  0
   11.3330   14.6003   -0.0000 C   0  0  0  0  0  0  0  0  0  0  0  0
   10.5997   17.5590   -0.0000 C   0  0  0  0  0  0  0  0  0  0  0  0
   11.8861   18.3308   -0.0000 C   0  0  0  0  0  0  0  0  0  0  0  0
    9.5063   18.2279   -0.0000 C   0  0  0  0  0  0  0  0  0  0  0  0
   13.1982   17.5847   -0.0000 C   0  0  0  0  0  0  0  0  0  0  0  0
   14.4846   18.3565   -0.0000 C   0  0  0  0  0  0  0  0  0  0  0  0
   14.4717   19.8873   -0.0000 O   0  0  0  0  0  0  0  0  0  0  0  0
   15.7838   17.6233   -0.0000 O   0  0  0  0  0  0  0  0  0  0  0  0
  1  2  2  0  0  0  0
  2  3  1  0  0  0  0
  2  4  1  0  0  0  0
  3  5  2  0  0  0  0
  4  6  1  0  0  0  0
  5  7  1  0  0  0  0
  5  8  1  0  0  0  0
  7  9  2  0  0  0  0
  8 10  1  0  0  0  0
  9 11  1  0  0  0  0
  9 12  1  0  0  0  0
 11 13  1  1  0  0  0
 11 14  1  0  0  0  0
 12 15  1  0  0  0  0
 13 16  2  0  0  0  0
 13 17  1  0  0  0  0
 14 18  1  0  0  0  0
 15 19  1  1  0  0  0
 16 20  1  0  0  0  0
 17 21  2  0  0  0  0
 18 22  1  0  0  0  0
 18 23  1  1  0  0  0
 19 24  1  0  0  0  0
 20 25  2  0  0  0  0
 22 26  1  1  0  0  0
 22 27  1  0  0  0  0
 25 28  1  0  0  0  0
 27 29  3  0  0  0  0
 28 30  1  0  0  0  0
 28 31  1  0  0  0  0
 30 32  1  0  0  0  0
 32 33  1  0  0  0  0
 33 34  1  0  0  0  0
 34 35  1  0  0  0  0
 34 36  1  0  0  0  0
 37 35  1  6  0  0  0
 36 38  1  0  0  0  0
 37 39  1  0  0  0  0
 37 40  1  0  0  0  0
 39 41  1  0  0  0  0
 39 42  1  1  0  0  0
 40 43  1  0  0  0  0
 44 41  1  6  0  0  0
 41 45  1  1  0  0  0
 43 46  1  6  0  0  0
 44 47  1  0  0  0  0
 45 48  1  0  0  0  0
 47 49  1  0  0  0  0
 47 50  1  1  0  0  0
 48 51  1  6  0  0  0
 49 52  1  0  0  0  0
 49 53  1  1  0  0  0
 50 54  1  0  0  0  0
 52 55  1  0  0  0  0
 55 56  1  0  0  0  0
 55 57  1  6  0  0  0
 56 58  1  0  0  0  0
 58 59  1  0  0  0  0
 59 60  2  0  0  0  0
 59 61  1  0  0  0  0
  6  7  1  0  0  0  0
 12 10  1  6  0  0  0
 15 18  1  0  0  0  0
 21 25  1  0  0  0  0
 22 24  1  0  0  0  0
 38 39  1  0  0  0  0
 43 44  1  0  0  0  0
 48 49  1  0  0  0  0
 52 54  1  1  0  0  0
M  END
>  <MolRegNo>
312117

>  <m>
=

>  <Value>
11

>  <Unit>
nM

>  <Type>
Ki

>  <pValue>
7.96

>  <Ligand Efficiency>
0.18

>  <Binding Efficiency>
9.52

>  <Surface Efficiency>
6.24

>  <Assay Index>
235403

>  <Assay Category>


>  <Assay Organism>
Homo sapiens

>  <Target ID>
19

>  <Target Name>
Estrogen receptor alpha

>  <Target Organism>
Homo sapiens

>  <Target Description>
Target is a single protein chain

>  <Sequence Accession>
P03372

>  <Reference>
J Med Chem 47 (17), 4213-4230 (2004)

>  <Pubmed ID>
15293993

>  <DOI>
10.1021/jm0400045

$$$$
312118
Actelion Java MolfileCreator 1.0

 65 73  0  0  1  0  0  0  0  0999 V2000
    0.0000   -0.0000   -0.0000 O   0  0  0  0  0  0  0  0  0  0  0  0
    1.3116    0.7715   -0.0000 C   0  0  0  0  0  0  0  0  0  0  0  0
    2.6103    0.0129   -0.0000 C   0  0  0  0  0  0  0  0  0  0  0  0
    1.3116    2.2888   -0.0000 C   0  0  0  0  0  0  0  0  0  0  0  0
    3.8961    0.7972   -0.0000 C   0  0  0  0  0  0  0  0  0  0  0  0
    2.5974    3.0346   -0.0000 C   0  0  0  0  0  0  0  0  0  0  0  0
    3.8833    2.3145   -0.0000 C   0  0  0  0  0  0  0  0  0  0  0  0
    5.1948    0.0386   -0.0000 C   0  0  0  0  0  0  0  0  0  0  0  0
    5.1820    3.0603   -0.0000 C   0  0  0  0  0  0  0  0  0  0  0  0
    6.4807    0.8229   -0.0000 C   0  0  0  0  0  0  0  0  0  0  0  0
    5.1691    4.5776   -0.0000 C   0  0  0  0  0  0  0  0  0  0  0  0
    6.4550    2.3145   -0.0000 C   0  0  0  0  0  0  0  0  0  0  0  0
    4.2690    5.0791   -0.0000 C   0  0  0  0  0  0  0  0  0  0  0  0
    6.4421    5.3620   -0.0000 C   0  0  0  0  0  0  0  0  0  0  0  0
    7.7408    3.0860   -0.0000 C   0  0  0  0  0  0  0  0  0  0  0  0
    4.0247    6.5964   -0.0000 C   0  0  0  0  0  0  0  0  0  0  0  0
    3.0860    4.1404   -0.0000 C   0  0  0  0  0  0  0  0  0  0  0  0
    7.7280    4.6033   -0.0000 C   0  0  0  0  0  0  0  0  0  0  0  0
    9.1681    2.6360   -0.0000 C   0  0  0  0  0  0  0  0  0  0  0  0
    2.5974    7.1622   -0.0000 C   0  0  0  0  0  0  0  0  0  0  0  0
    1.6459    4.7062   -0.0000 C   0  0  0  0  0  0  0  0  0  0  0  0
    9.1553    5.0920   -0.0000 C   0  0  0  0  0  0  0  0  0  0  0  0
    7.7408    6.2492   -0.0000 C   0  0  0  0  0  0  0  0  0  0  0  0
   10.0425    3.8833   -0.0000 C   0  0  0  0  0  0  0  0  0  0  0  0
    1.4144    6.2364   -0.0000 C   0  0  0  0  0  0  0  0  0  0  0  0
    9.1167    6.6993   -0.0000 O   0  0  0  0  0  0  0  0  0  0  0  0
   10.4411    5.8892   -0.0000 C   0  0  0  0  0  0  0  0  0  0  0  0
    0.0772    7.0079   -0.0000 N   0  0  0  0  0  0  0  0  0  0  0  0
   11.7270    6.6736   -0.0000 C   0  0  0  0  0  0  0  0  0  0  0  0
    0.0643    8.5509   -0.0000 C   0  0  0  0  0  0  0  0  0  0  0  0
   -0.7715    5.7606   -0.0000 C   0  0  0  0  0  0  0  0  0  0  0  0
   -1.2473    9.3224   -0.0000 C   0  0  0  0  0  0  0  0  0  0  0  0
   -1.2601   10.8397   -0.0000 C   0  0  0  0  0  0  0  0  0  0  0  0
   -2.6103   11.6112   -0.0000 C   0  0  0  0  0  0  0  0  0  0  0  0
   -3.9218   10.8654   -0.0000 O   0  0  0  0  0  0  0  0  0  0  0  0
   -2.6231   13.1285   -0.0000 N   0  0  0  0  0  0  0  0  0  0  0  0
   -1.2987   13.9129   -0.0000 C   0  0  0  0  0  0  0  0  0  0  0  0
   -3.9347   13.9258   -0.0000 C   0  0  0  0  0  0  0  0  0  0  0  0
   -0.0129   13.1543   -0.0000 C   0  0  0  0  0  0  0  0  0  0  0  0
   -1.3116   15.4302   -0.0000 C   0  0  0  0  0  0  0  0  0  0  0  0
    1.2859   13.9386   -0.0000 C   0  0  0  0  0  0  0  0  0  0  0  0
   -0.0257   16.2017   -0.0000 C   0  0  0  0  0  0  0  0  0  0  0  0
    1.2730   15.4559   -0.0000 C   0  0  0  0  0  0  0  0  0  0  0  0
    2.5717   13.1800   -0.0000 C   0  0  0  0  0  0  0  0  0  0  0  0
    2.5588   16.2274   -0.0000 C   0  0  0  0  0  0  0  0  0  0  0  0
    1.2601   16.9732   -0.0000 C   0  0  0  0  0  0  0  0  0  0  0  0
    3.8704   13.9386   -0.0000 C   0  0  0  0  0  0  0  0  0  0  0  0
    3.8576   15.4559   -0.0000 C   0  0  0  0  0  0  0  0  0  0  0  0
    2.5460   17.7447   -0.0000 C   0  0  0  0  0  0  0  0  0  0  0  0
    4.9377   12.8842   -0.0000 O   0  0  0  0  0  0  0  0  0  0  0  0
    5.1434   16.2274   -0.0000 C   0  0  0  0  0  0  0  0  0  0  0  0
    3.8833   18.4905   -0.0000 C   0  0  0  0  0  0  0  0  0  0  0  0
    5.1820   17.7447   -0.0000 C   0  0  0  0  0  0  0  0  0  0  0  0
    6.5836   15.7260   -0.0000 C   0  0  0  0  0  0  0  0  0  0  0  0
    3.8704   19.9693   -0.0000 O   0  0  0  0  0  0  0  0  0  0  0  0
    6.6093   18.1948   -0.0000 C   0  0  0  0  0  0  0  0  0  0  0  0
    5.1820   18.9406   -0.0000 C   0  0  0  0  0  0  0  0  0  0  0  0
    7.3551   16.8961   -0.0000 C   0  0  0  0  0  0  0  0  0  0  0  0
    6.6093   19.8278   -0.0000 C   0  0  0  0  0  0  0  0  0  0  0  0
    7.9080   20.5993   -0.0000 C   0  0  0  0  0  0  0  0  0  0  0  0
    5.5163   20.4836   -0.0000 C   0  0  0  0  0  0  0  0  0  0  0  0
    9.1938   19.8793   -0.0000 C   0  0  0  0  0  0  0  0  0  0  0  0
   10.4925   20.6251   -0.0000 C   0  0  0  0  0  0  0  0  0  0  0  0
   10.4668   22.1938   -0.0000 O   0  0  0  0  0  0  0  0  0  0  0  0
   11.7784   19.9050   -0.0000 O   0  0  0  0  0  0  0  0  0  0  0  0
  1  2  2  0  0  0  0
  2  3  1  0  0  0  0
  2  4  1  0  0  0  0
  3  5  2  0  0  0  0
  4  6  1  0  0  0  0
  5  7  1  0  0  0  0
  5  8  1  0  0  0  0
  7  9  2  0  0  0  0
  8 10  1  0  0  0  0
  9 11  1  0  0  0  0
  9 12  1  0  0  0  0
 11 13  1  1  0  0  0
 11 14  1  0  0  0  0
 12 15  1  0  0  0  0
 13 16  2  0  0  0  0
 13 17  1  0  0  0  0
 14 18  1  0  0  0  0
 15 19  1  1  0  0  0
 16 20  1  0  0  0  0
 17 21  2  0  0  0  0
 18 22  1  0  0  0  0
 18 23  1  1  0  0  0
 19 24  1  0  0  0  0
 20 25  2  0  0  0  0
 22 26  1  1  0  0  0
 22 27  1  0  0  0  0
 25 28  1  0  0  0  0
 27 29  3  0  0  0  0
 28 30  1  0  0  0  0
 28 31  1  0  0  0  0
 30 32  1  0  0  0  0
 32 33  1  0  0  0  0
 33 34  1  0  0  0  0
 34 35  2  0  0  0  0
 34 36  1  0  0  0  0
 36 37  1  0  0  0  0
 36 38  1  0  0  0  0
 37 39  1  0  0  0  0
 37 40  1  0  0  0  0
 41 39  1  6  0  0  0
 40 42  1  0  0  0  0
 41 43  1  0  0  0  0
 41 44  1  0  0  0  0
 43 45  1  0  0  0  0
 43 46  1  1  0  0  0
 44 47  1  0  0  0  0
 48 45  1  6  0  0  0
 45 49  1  1  0  0  0
 47 50  1  6  0  0  0
 48 51  1  0  0  0  0
 49 52  1  0  0  0  0
 51 53  1  0  0  0  0
 51 54  1  1  0  0  0
 52 55  1  6  0  0  0
 53 56  1  0  0  0  0
 53 57  1  1  0  0  0
 54 58  1  0  0  0  0
 56 59  1  0  0  0  0
 59 60  1  0  0  0  0
 59 61  1  6  0  0  0
 60 62  1  0  0  0  0
 62 63  1  0  0  0  0
 63 64  2  0  0  0  0
 63 65  1  0  0  0  0
  6  7  1  0  0  0  0
 12 10  1  6  0  0  0
 15 18  1  0  0  0  0
 21 25  1  0  0  0  0
 22 24  1  0  0  0  0
 42 43  1  0  0  0  0
 47 48  1  0  0  0  0
 52 53  1  0  0  0  0
 56 58  1  1  0  0  0
M  END
>  <MolRegNo>
312118

>  <m>
=

>  <Value>
6.2

>  <Unit>
nM

>  <Type>
Ki

>  <pValue>
8.21

>  <Ligand Efficiency>
0.17

>  <Binding Efficiency>
9.21

>  <Surface Efficiency>
5.92

>  <Assay Index>
235403

>  <Assay Category>


>  <Assay Organism>
Homo sapiens

>  <Target ID>
19

>  <Target Name>
Estrogen receptor alpha

>  <Target Organism>
Homo sapiens

>  <Target Description>
Target is a single protein chain

>  <Sequence Accession>
P03372

>  <Reference>
J Med Chem 47 (17), 4213-4230 (2004)

>  <Pubmed ID>
15293993

>  <DOI>
10.1021/jm0400045

$$$$
312119
Actelion Java MolfileCreator 1.0

 65 73  0  0  1  0  0  0  0  0999 V2000
    0.0000   -0.0000   -0.0000 O   0  0  0  0  0  0  0  0  0  0  0  0
    1.2896    0.7569   -0.0000 C   0  0  0  0  0  0  0  0  0  0  0  0
    2.5792    0.0140   -0.0000 C   0  0  0  0  0  0  0  0  0  0  0  0
    1.2896    2.2848   -0.0000 C   0  0  0  0  0  0  0  0  0  0  0  0
    3.8688    0.7850   -0.0000 C   0  0  0  0  0  0  0  0  0  0  0  0
    2.5792    3.0418   -0.0000 C   0  0  0  0  0  0  0  0  0  0  0  0
    3.8548    2.2988   -0.0000 C   0  0  0  0  0  0  0  0  0  0  0  0
    5.1724    0.0561   -0.0000 C   0  0  0  0  0  0  0  0  0  0  0  0
    5.1303    3.0698   -0.0000 C   0  0  0  0  0  0  0  0  0  0  0  0
    6.4480    0.8130   -0.0000 C   0  0  0  0  0  0  0  0  0  0  0  0
    5.1163    4.5696   -0.0000 C   0  0  0  0  0  0  0  0  0  0  0  0
    6.4199    2.3129   -0.0000 C   0  0  0  0  0  0  0  0  0  0  0  0
    4.2192    5.0602   -0.0000 C   0  0  0  0  0  0  0  0  0  0  0  0
    6.4059    5.3546   -0.0000 C   0  0  0  0  0  0  0  0  0  0  0  0
    7.7095    3.0978   -0.0000 C   0  0  0  0  0  0  0  0  0  0  0  0
    3.9809    6.5461   -0.0000 C   0  0  0  0  0  0  0  0  0  0  0  0
    3.0277    4.1211   -0.0000 C   0  0  0  0  0  0  0  0  0  0  0  0
    7.6955    4.5977   -0.0000 C   0  0  0  0  0  0  0  0  0  0  0  0
    9.1253    2.6493   -0.0000 C   0  0  0  0  0  0  0  0  0  0  0  0
    2.5652    7.1208   -0.0000 C   0  0  0  0  0  0  0  0  0  0  0  0
    1.6120    4.6818   -0.0000 C   0  0  0  0  0  0  0  0  0  0  0  0
    9.1112    5.0743   -0.0000 C   0  0  0  0  0  0  0  0  0  0  0  0
    7.6955    6.2377   -0.0000 C   0  0  0  0  0  0  0  0  0  0  0  0
    9.9943    3.8828   -0.0000 C   0  0  0  0  0  0  0  0  0  0  0  0
    1.3737    6.1956   -0.0000 C   0  0  0  0  0  0  0  0  0  0  0  0
    9.0692    6.7003   -0.0000 O   0  0  0  0  0  0  0  0  0  0  0  0
   10.4008    5.8592   -0.0000 C   0  0  0  0  0  0  0  0  0  0  0  0
    0.0421    6.9666   -0.0000 N   0  0  0  0  0  0  0  0  0  0  0  0
   11.6904    6.6302   -0.0000 C   0  0  0  0  0  0  0  0  0  0  0  0
    0.0280    8.6206   -0.0000 C   0  0  0  0  0  0  0  0  0  0  0  0
   -1.2896    6.2517   -0.0000 C   0  0  0  0  0  0  0  0  0  0  0  0
   -1.7662    9.0972   -0.0000 C   0  0  0  0  0  0  0  0  0  0  0  0
   -1.7802   10.6111   -0.0000 N   0  0  0  0  0  0  0  0  0  0  0  0
   -0.4766   11.3680   -0.0000 C   0  0  0  0  0  0  0  0  0  0  0  0
    0.8130   10.6251   -0.0000 O   0  0  0  0  0  0  0  0  0  0  0  0
   -0.4766   12.8819   -0.0000 N   0  0  0  0  0  0  0  0  0  0  0  0
    0.8130   13.6528   -0.0000 C   0  0  0  0  0  0  0  0  0  0  0  0
   -1.8082   13.6669   -0.0000 C   0  0  0  0  0  0  0  0  0  0  0  0
    2.1026   12.9099   -0.0000 C   0  0  0  0  0  0  0  0  0  0  0  0
    0.7990   15.1667   -0.0000 C   0  0  0  0  0  0  0  0  0  0  0  0
    3.3782   13.6809   -0.0000 C   0  0  0  0  0  0  0  0  0  0  0  0
    2.0886   15.9657   -0.0000 C   0  0  0  0  0  0  0  0  0  0  0  0
    3.3782   15.1948   -0.0000 C   0  0  0  0  0  0  0  0  0  0  0  0
    4.6678   12.9239   -0.0000 C   0  0  0  0  0  0  0  0  0  0  0  0
    4.6678   15.9657   -0.0000 C   0  0  0  0  0  0  0  0  0  0  0  0
    3.3501   16.7086   -0.0000 C   0  0  0  0  0  0  0  0  0  0  0  0
    5.9714   13.7089   -0.0000 C   0  0  0  0  0  0  0  0  0  0  0  0
    5.9574   15.2088   -0.0000 C   0  0  0  0  0  0  0  0  0  0  0  0
    4.6537   17.4656   -0.0000 C   0  0  0  0  0  0  0  0  0  0  0  0
    7.0086   12.6436   -0.0000 O   0  0  0  0  0  0  0  0  0  0  0  0
    7.2469   15.9657   -0.0000 C   0  0  0  0  0  0  0  0  0  0  0  0
    5.9714   18.2505   -0.0000 C   0  0  0  0  0  0  0  0  0  0  0  0
    7.2750   17.4796   -0.0000 C   0  0  0  0  0  0  0  0  0  0  0  0
    8.6627   15.4891   -0.0000 C   0  0  0  0  0  0  0  0  0  0  0  0
    5.9854   19.6803   -0.0000 O   0  0  0  0  0  0  0  0  0  0  0  0
    8.6907   17.9421   -0.0000 C   0  0  0  0  0  0  0  0  0  0  0  0
    7.2750   18.6851   -0.0000 C   0  0  0  0  0  0  0  0  0  0  0  0
    9.4336   16.6526   -0.0000 C   0  0  0  0  0  0  0  0  0  0  0  0
    8.6907   19.5822   -0.0000 C   0  0  0  0  0  0  0  0  0  0  0  0
    9.9803   20.3531   -0.0000 C   0  0  0  0  0  0  0  0  0  0  0  0
    7.5834   20.2410   -0.0000 C   0  0  0  0  0  0  0  0  0  0  0  0
   11.2699   19.6242   -0.0000 C   0  0  0  0  0  0  0  0  0  0  0  0
   12.5595   20.4092   -0.0000 C   0  0  0  0  0  0  0  0  0  0  0  0
   12.5455   21.9090   -0.0000 O   0  0  0  0  0  0  0  0  0  0  0  0
   13.8491   19.6803   -0.0000 O   0  0  0  0  0  0  0  0  0  0  0  0
  1  2  2  0  0  0  0
  2  3  1  0  0  0  0
  2  4  1  0  0  0  0
  3  5  2  0  0  0  0
  4  6  1  0  0  0  0
  5  7  1  0  0  0  0
  5  8  1  0  0  0  0
  7  9  2  0  0  0  0
  8 10  1  0  0  0  0
  9 11  1  0  0  0  0
  9 12  1  0  0  0  0
 11 13  1  1  0  0  0
 11 14  1  0  0  0  0
 12 15  1  0  0  0  0
 13 16  2  0  0  0  0
 13 17  1  0  0  0  0
 14 18  1  0  0  0  0
 15 19  1  1  0  0  0
 16 20  1  0  0  0  0
 17 21  2  0  0  0  0
 18 22  1  0  0  0  0
 18 23  1  1  0  0  0
 19 24  1  0  0  0  0
 20 25  2  0  0  0  0
 22 26  1  1  0  0  0
 22 27  1  0  0  0  0
 25 28  1  0  0  0  0
 27 29  3  0  0  0  0
 28 30  1  0  0  0  0
 28 31  1  0  0  0  0
 30 32  1  0  0  0  0
 32 33  1  0  0  0  0
 33 34  1  0  0  0  0
 34 35  2  0  0  0  0
 34 36  1  0  0  0  0
 36 37  1  0  0  0  0
 36 38  1  0  0  0  0
 37 39  1  0  0  0  0
 37 40  1  0  0  0  0
 41 39  1  6  0  0  0
 40 42  1  0  0  0  0
 41 43  1  0  0  0  0
 41 44  1  0  0  0  0
 43 45  1  0  0  0  0
 43 46  1  1  0  0  0
 44 47  1  0  0  0  0
 48 45  1  6  0  0  0
 45 49  1  1  0  0  0
 47 50  1  6  0  0  0
 48 51  1  0  0  0  0
 49 52  1  0  0  0  0
 51 53  1  0  0  0  0
 51 54  1  1  0  0  0
 52 55  1  6  0  0  0
 53 56  1  0  0  0  0
 53 57  1  1  0  0  0
 54 58  1  0  0  0  0
 56 59  1  0  0  0  0
 59 60  1  0  0  0  0
 59 61  1  6  0  0  0
 60 62  1  0  0  0  0
 62 63  1  0  0  0  0
 63 64  2  0  0  0  0
 63 65  1  0  0  0  0
  6  7  1  0  0  0  0
 12 10  1  6  0  0  0
 15 18  1  0  0  0  0
 21 25  1  0  0  0  0
 22 24  1  0  0  0  0
 42 43  1  0  0  0  0
 47 48  1  0  0  0  0
 52 53  1  0  0  0  0
 56 58  1  1  0  0  0
M  END
>  <MolRegNo>
312119

>  <m>
=

>  <Value>
140

>  <Unit>
nM

>  <Type>
Ki

>  <pValue>
6.85

>  <Ligand Efficiency>
0.14

>  <Binding Efficiency>
7.68

>  <Surface Efficiency>
4.55

>  <Assay Index>
235403

>  <Assay Category>


>  <Assay Organism>
Homo sapiens

>  <Target ID>
19

>  <Target Name>
Estrogen receptor alpha

>  <Target Organism>
Homo sapiens

>  <Target Description>
Target is a single protein chain

>  <Sequence Accession>
P03372

>  <Reference>
J Med Chem 47 (17), 4213-4230 (2004)

>  <Pubmed ID>
15293993

>  <DOI>
10.1021/jm0400045

$$$$
312053
Actelion Java MolfileCreator 1.0

 66 74  0  0  1  0  0  0  0  0999 V2000
    0.0000   -0.0000   -0.0000 S   0  0  0  0  0  0  0  0  0  0  0  0
    1.2670   -0.7498   -0.0000 O   0  0  0  0  0  0  0  0  0  0  0  0
   -1.3316    0.7628   -0.0000 O   0  0  0  0  0  0  0  0  0  0  0  0
   -0.0129    1.5126   -0.0000 N   0  0  0  0  0  0  0  0  0  0  0  0
   -1.4351   -0.8016   -0.0000 C   0  0  0  0  0  0  0  0  0  0  0  0
    1.2799    2.2625   -0.0000 C   0  0  0  0  0  0  0  0  0  0  0  0
   -1.3446    2.2883   -0.0000 C   0  0  0  0  0  0  0  0  0  0  0  0
   -1.4480   -2.4305   -0.0000 C   0  0  0  0  0  0  0  0  0  0  0  0
    2.5598    1.5385   -0.0000 C   0  0  0  0  0  0  0  0  0  0  0  0
    1.2670    3.8139   -0.0000 C   0  0  0  0  0  0  0  0  0  0  0  0
   -2.8830   -3.2321   -0.0000 C   0  0  0  0  0  0  0  0  0  0  0  0
    3.8656    2.2883   -0.0000 C   0  0  0  0  0  0  0  0  0  0  0  0
    2.5469    4.5767   -0.0000 C   0  0  0  0  0  0  0  0  0  0  0  0
   -2.8960   -4.8611   -0.0000 N   0  0  0  0  0  0  0  0  0  0  0  0
    3.8527    3.8397   -0.0000 C   0  0  0  0  0  0  0  0  0  0  0  0
    5.1714    1.5385   -0.0000 C   0  0  0  0  0  0  0  0  0  0  0  0
   -1.5902   -5.6109   -0.0000 C   0  0  0  0  0  0  0  0  0  0  0  0
   -4.2276   -5.6109   -0.0000 C   0  0  0  0  0  0  0  0  0  0  0  0
    5.1584    4.5896   -0.0000 C   0  0  0  0  0  0  0  0  0  0  0  0
    3.8397    5.3524   -0.0000 C   0  0  0  0  0  0  0  0  0  0  0  0
    6.4642    2.3142   -0.0000 C   0  0  0  0  0  0  0  0  0  0  0  0
   -1.3833   -7.0977   -0.0000 C   0  0  0  0  0  0  0  0  0  0  0  0
   -0.4137   -4.6542   -0.0000 C   0  0  0  0  0  0  0  0  0  0  0  0
    6.4513    3.8397   -0.0000 C   0  0  0  0  0  0  0  0  0  0  0  0
    5.1584    6.1410   -0.0000 C   0  0  0  0  0  0  0  0  0  0  0  0
    7.4985    1.2541   -0.0000 O   0  0  0  0  0  0  0  0  0  0  0  0
    0.0259   -7.6278   -0.0000 C   0  0  0  0  0  0  0  0  0  0  0  0
    0.9696   -5.1843   -0.0000 C   0  0  0  0  0  0  0  0  0  0  0  0
    7.7312    4.5767   -0.0000 C   0  0  0  0  0  0  0  0  0  0  0  0
    6.4642    6.8908   -0.0000 C   0  0  0  0  0  0  0  0  0  0  0  0
    1.1894   -6.6581   -0.0000 C   0  0  0  0  0  0  0  0  0  0  0  0
    7.7700    6.0893   -0.0000 C   0  0  0  0  0  0  0  0  0  0  0  0
    9.1663    4.1242   -0.0000 C   0  0  0  0  0  0  0  0  0  0  0  0
    6.4513    8.3388   -0.0000 O   0  0  0  0  0  0  0  0  0  0  0  0
    2.0556   -7.1236   -0.0000 C   0  0  0  0  0  0  0  0  0  0  0  0
    9.2050    6.5676   -0.0000 C   0  0  0  0  0  0  0  0  0  0  0  0
    7.7829    7.3046   -0.0000 C   0  0  0  0  0  0  0  0  0  0  0  0
    9.9420    5.2619   -0.0000 C   0  0  0  0  0  0  0  0  0  0  0  0
    2.0427   -8.6103   -0.0000 C   0  0  0  0  0  0  0  0  0  0  0  0
    3.3485   -6.3479   -0.0000 C   0  0  0  0  0  0  0  0  0  0  0  0
    9.1921    8.2095   -0.0000 C   0  0  0  0  0  0  0  0  0  0  0  0
    0.7369   -9.3343   -0.0000 C   0  0  0  0  0  0  0  0  0  0  0  0
    3.3355   -9.3472   -0.0000 C   0  0  0  0  0  0  0  0  0  0  0  0
    4.6284   -7.0977   -0.0000 C   0  0  0  0  0  0  0  0  0  0  0  0
   10.4849    8.9594   -0.0000 C   0  0  0  0  0  0  0  0  0  0  0  0
    8.1061    8.8560   -0.0000 C   0  0  0  0  0  0  0  0  0  0  0  0
    0.7240  -10.8340   -0.0000 C   0  0  0  0  0  0  0  0  0  0  0  0
   -0.5818   -8.5845   -0.0000 C   0  0  0  0  0  0  0  0  0  0  0  0
    4.6154   -8.5845   -0.0000 C   0  0  0  0  0  0  0  0  0  0  0  0
    3.3355  -10.8340   -0.0000 C   0  0  0  0  0  0  0  0  0  0  0  0
    6.0634   -6.6194   -0.0000 C   0  0  0  0  0  0  0  0  0  0  0  0
    4.6413   -5.4558   -0.0000 C   0  0  0  0  0  0  0  0  0  0  0  0
   11.7649    8.2483   -0.0000 C   0  0  0  0  0  0  0  0  0  0  0  0
   -0.5947  -11.5839   -0.0000 C   0  0  0  0  0  0  0  0  0  0  0  0
    2.0298  -11.5580   -0.0000 C   0  0  0  0  0  0  0  0  0  0  0  0
   -1.8875   -9.2955   -0.0000 C   0  0  0  0  0  0  0  0  0  0  0  0
    6.0505   -9.0370   -0.0000 C   0  0  0  0  0  0  0  0  0  0  0  0
    6.0246   -5.0033   -0.0000 O   0  0  0  0  0  0  0  0  0  0  0  0
    7.3563   -5.8436   -0.0000 C   0  0  0  0  0  0  0  0  0  0  0  0
    6.9296   -7.8217   -0.0000 C   0  0  0  0  0  0  0  0  0  0  0  0
   13.0706    9.0111   -0.0000 C   0  0  0  0  0  0  0  0  0  0  0  0
   -1.9263  -10.8082   -0.0000 C   0  0  0  0  0  0  0  0  0  0  0  0
    8.6362   -5.0421   -0.0000 C   0  0  0  0  0  0  0  0  0  0  0  0
   13.0577   10.5237   -0.0000 O   0  0  0  0  0  0  0  0  0  0  0  0
   14.3764    8.2871   -0.0000 O   0  0  0  0  0  0  0  0  0  0  0  0
   -3.2321  -11.5322   -0.0000 O   0  0  0  0  0  0  0  0  0  0  0  0
  1  2  2  0  0  0  0
  1  3  2  0  0  0  0
  1  4  1  0  0  0  0
  1  5  1  0  0  0  0
  4  6  1  0  0  0  0
  4  7  1  0  0  0  0
  5  8  1  0  0  0  0
  6  9  1  0  0  0  0
  6 10  1  0  0  0  0
  8 11  1  0  0  0  0
 12  9  1  6  0  0  0
 10 13  1  0  0  0  0
 11 14  1  0  0  0  0
 12 15  1  0  0  0  0
 12 16  1  0  0  0  0
 14 17  1  0  0  0  0
 14 18  1  0  0  0  0
 15 19  1  0  0  0  0
 15 20  1  1  0  0  0
 16 21  1  0  0  0  0
 17 22  2  0  0  0  0
 17 23  1  0  0  0  0
 24 19  1  6  0  0  0
 19 25  1  1  0  0  0
 21 26  1  6  0  0  0
 22 27  1  0  0  0  0
 23 28  2  0  0  0  0
 24 29  1  0  0  0  0
 25 30  1  0  0  0  0
 27 31  2  0  0  0  0
 29 32  1  0  0  0  0
 29 33  1  1  0  0  0
 30 34  1  6  0  0  0
 35 31  1  1  0  0  0
 32 36  1  0  0  0  0
 32 37  1  1  0  0  0
 33 38  1  0  0  0  0
 35 39  1  0  0  0  0
 35 40  1  0  0  0  0
 36 41  1  0  0  0  0
 39 42  2  0  0  0  0
 39 43  1  0  0  0  0
 40 44  1  0  0  0  0
 41 45  1  0  0  0  0
 41 46  1  6  0  0  0
 42 47  1  0  0  0  0
 42 48  1  0  0  0  0
 43 49  1  0  0  0  0
 43 50  1  6  0  0  0
 44 51  1  0  0  0  0
 44 52  1  1  0  0  0
 45 53  1  0  0  0  0
 47 54  2  0  0  0  0
 47 55  1  0  0  0  0
 48 56  1  0  0  0  0
 49 57  1  1  0  0  0
 51 58  1  1  0  0  0
 51 59  1  0  0  0  0
 51 60  1  0  0  0  0
 53 61  1  0  0  0  0
 54 62  1  0  0  0  0
 59 63  3  0  0  0  0
 61 64  2  0  0  0  0
 61 65  1  0  0  0  0
 62 66  2  0  0  0  0
 13 15  1  0  0  0  0
 21 24  1  0  0  0  0
 28 31  1  0  0  0  0
 30 32  1  0  0  0  0
 36 38  1  1  0  0  0
 44 49  1  0  0  0  0
 50 55  1  0  0  0  0
 56 62  1  0  0  0  0
 57 60  1  0  0  0  0
M  END
>  <MolRegNo>
312053

>  <m>
=

>  <Value>
19

>  <Unit>
nM

>  <Type>
Ki

>  <pValue>
7.72

>  <Ligand Efficiency>
0.16

>  <Binding Efficiency>
8.33

>  <Surface Efficiency>
4.96

>  <Assay Index>
235403

>  <Assay Category>


>  <Assay Organism>
Homo sapiens

>  <Target ID>
19

>  <Target Name>
Estrogen receptor alpha

>  <Target Organism>
Homo sapiens

>  <Target Description>
Target is a single protein chain

>  <Sequence Accession>
P03372

>  <Reference>
J Med Chem 47 (17), 4213-4230 (2004)

>  <Pubmed ID>
15293993

>  <DOI>
10.1021/jm0400045

$$$$
312054
Actelion Java MolfileCreator 1.0

 62 70  0  0  1  0  0  0  0  0999 V2000
    0.0000   -0.0000   -0.0000 O   0  0  0  0  0  0  0  0  0  0  0  0
    1.3042    0.7748   -0.0000 C   0  0  0  0  0  0  0  0  0  0  0  0
    2.5955    0.0258   -0.0000 C   0  0  0  0  0  0  0  0  0  0  0  0
    1.3042    2.2856   -0.0000 C   0  0  0  0  0  0  0  0  0  0  0  0
    3.8739    0.7748   -0.0000 C   0  0  0  0  0  0  0  0  0  0  0  0
    2.5955    3.0474   -0.0000 C   0  0  0  0  0  0  0  0  0  0  0  0
    3.8739    2.2856   -0.0000 C   0  0  0  0  0  0  0  0  0  0  0  0
    5.1651    0.0517   -0.0000 C   0  0  0  0  0  0  0  0  0  0  0  0
    5.1651    3.0603   -0.0000 C   0  0  0  0  0  0  0  0  0  0  0  0
    6.4435    0.8264   -0.0000 C   0  0  0  0  0  0  0  0  0  0  0  0
    5.1522    4.5712   -0.0000 C   0  0  0  0  0  0  0  0  0  0  0  0
    6.4435    2.3114   -0.0000 C   0  0  0  0  0  0  0  0  0  0  0  0
    4.2483    5.0748   -0.0000 C   0  0  0  0  0  0  0  0  0  0  0  0
    6.4306    5.3459   -0.0000 C   0  0  0  0  0  0  0  0  0  0  0  0
    7.7348    3.0862   -0.0000 C   0  0  0  0  0  0  0  0  0  0  0  0
    4.0030    6.5597   -0.0000 C   0  0  0  0  0  0  0  0  0  0  0  0
    3.0603    4.1321   -0.0000 C   0  0  0  0  0  0  0  0  0  0  0  0
    7.7219    4.5970   -0.0000 C   0  0  0  0  0  0  0  0  0  0  0  0
    9.1552    2.6342   -0.0000 C   0  0  0  0  0  0  0  0  0  0  0  0
    2.5826    7.1279   -0.0000 C   0  0  0  0  0  0  0  0  0  0  0  0
    1.6141    4.7003   -0.0000 C   0  0  0  0  0  0  0  0  0  0  0  0
    9.1423    5.1006   -0.0000 C   0  0  0  0  0  0  0  0  0  0  0  0
    7.7348    6.2498   -0.0000 C   0  0  0  0  0  0  0  0  0  0  0  0
   10.0333    3.8739   -0.0000 C   0  0  0  0  0  0  0  0  0  0  0  0
    1.3946    6.1982   -0.0000 C   0  0  0  0  0  0  0  0  0  0  0  0
    9.1036    6.7018   -0.0000 O   0  0  0  0  0  0  0  0  0  0  0  0
   10.4336    5.8495   -0.0000 C   0  0  0  0  0  0  0  0  0  0  0  0
    0.0646    6.9600   -0.0000 N   0  0  0  0  0  0  0  0  0  0  0  0
   11.7378    6.6372   -0.0000 C   0  0  0  0  0  0  0  0  0  0  0  0
    1.4075    8.1609   -0.0000 C   0  0  0  0  0  0  0  0  0  0  0  0
   -1.4462    6.8309   -0.0000 C   0  0  0  0  0  0  0  0  0  0  0  0
    1.3946    9.6717   -0.0000 C   0  0  0  0  0  0  0  0  0  0  0  0
    2.6988   10.4207   -0.0000 C   0  0  0  0  0  0  0  0  0  0  0  0
    2.6988   11.9444   -0.0000 O   0  0  0  0  0  0  0  0  0  0  0  0
    3.9901   12.7192   -0.0000 C   0  0  0  0  0  0  0  0  0  0  0  0
    5.2943   11.9702   -0.0000 C   0  0  0  0  0  0  0  0  0  0  0  0
    3.9772   14.2429   -0.0000 C   0  0  0  0  0  0  0  0  0  0  0  0
    6.5597   12.7450   -0.0000 C   0  0  0  0  0  0  0  0  0  0  0  0
    5.2814   15.0177   -0.0000 C   0  0  0  0  0  0  0  0  0  0  0  0
    6.5726   14.2687   -0.0000 C   0  0  0  0  0  0  0  0  0  0  0  0
    7.8510   11.9960   -0.0000 C   0  0  0  0  0  0  0  0  0  0  0  0
    7.8639   15.0435   -0.0000 C   0  0  0  0  0  0  0  0  0  0  0  0
    6.5339   15.8053   -0.0000 C   0  0  0  0  0  0  0  0  0  0  0  0
    9.1681   12.7708   -0.0000 C   0  0  0  0  0  0  0  0  0  0  0  0
    9.1552   14.2687   -0.0000 C   0  0  0  0  0  0  0  0  0  0  0  0
    7.8639   16.5672   -0.0000 C   0  0  0  0  0  0  0  0  0  0  0  0
   10.2270   11.7120   -0.0000 O   0  0  0  0  0  0  0  0  0  0  0  0
   10.4594   15.0435   -0.0000 C   0  0  0  0  0  0  0  0  0  0  0  0
    9.1552   17.3420   -0.0000 C   0  0  0  0  0  0  0  0  0  0  0  0
   10.4723   16.5801   -0.0000 C   0  0  0  0  0  0  0  0  0  0  0  0
   11.8798   14.5528   -0.0000 C   0  0  0  0  0  0  0  0  0  0  0  0
    9.1681   18.7882   -0.0000 O   0  0  0  0  0  0  0  0  0  0  0  0
   11.8927   17.0062   -0.0000 C   0  0  0  0  0  0  0  0  0  0  0  0
   10.4852   17.7681   -0.0000 C   0  0  0  0  0  0  0  0  0  0  0  0
   12.6546   15.7149   -0.0000 C   0  0  0  0  0  0  0  0  0  0  0  0
   11.9057   18.6332   -0.0000 C   0  0  0  0  0  0  0  0  0  0  0  0
   13.1969   19.4338   -0.0000 C   0  0  0  0  0  0  0  0  0  0  0  0
   10.7951   19.3047   -0.0000 C   0  0  0  0  0  0  0  0  0  0  0  0
   14.4882   18.6849   -0.0000 C   0  0  0  0  0  0  0  0  0  0  0  0
   15.7924   19.4597   -0.0000 C   0  0  0  0  0  0  0  0  0  0  0  0
   15.7795   20.9705   -0.0000 O   0  0  0  0  0  0  0  0  0  0  0  0
   17.0837   18.7366   -0.0000 O   0  0  0  0  0  0  0  0  0  0  0  0
  1  2  2  0  0  0  0
  2  3  1  0  0  0  0
  2  4  1  0  0  0  0
  3  5  2  0  0  0  0
  4  6  1  0  0  0  0
  5  7  1  0  0  0  0
  5  8  1  0  0  0  0
  7  9  2  0  0  0  0
  8 10  1  0  0  0  0
  9 11  1  0  0  0  0
  9 12  1  0  0  0  0
 11 13  1  1  0  0  0
 11 14  1  0  0  0  0
 12 15  1  0  0  0  0
 13 16  2  0  0  0  0
 13 17  1  0  0  0  0
 14 18  1  0  0  0  0
 15 19  1  1  0  0  0
 16 20  1  0  0  0  0
 17 21  2  0  0  0  0
 18 22  1  0  0  0  0
 18 23  1  1  0  0  0
 19 24  1  0  0  0  0
 20 25  2  0  0  0  0
 22 26  1  1  0  0  0
 22 27  1  0  0  0  0
 25 28  1  0  0  0  0
 27 29  3  0  0  0  0
 28 30  1  0  0  0  0
 28 31  1  0  0  0  0
 30 32  1  0  0  0  0
 32 33  1  0  0  0  0
 33 34  1  0  0  0  0
 34 35  1  0  0  0  0
 35 36  1  0  0  0  0
 35 37  1  0  0  0  0
 38 36  1  6  0  0  0
 37 39  1  0  0  0  0
 38 40  1  0  0  0  0
 38 41  1  0  0  0  0
 40 42  1  0  0  0  0
 40 43  1  1  0  0  0
 41 44  1  0  0  0  0
 45 42  1  6  0  0  0
 42 46  1  1  0  0  0
 44 47  1  6  0  0  0
 45 48  1  0  0  0  0
 46 49  1  0  0  0  0
 48 50  1  0  0  0  0
 48 51  1  1  0  0  0
 49 52  1  6  0  0  0
 50 53  1  0  0  0  0
 50 54  1  1  0  0  0
 51 55  1  0  0  0  0
 53 56  1  0  0  0  0
 56 57  1  0  0  0  0
 56 58  1  6  0  0  0
 57 59  1  0  0  0  0
 59 60  1  0  0  0  0
 60 61  2  0  0  0  0
 60 62  1  0  0  0  0
  6  7  1  0  0  0  0
 12 10  1  6  0  0  0
 15 18  1  0  0  0  0
 21 25  1  0  0  0  0
 22 24  1  0  0  0  0
 39 40  1  0  0  0  0
 44 45  1  0  0  0  0
 49 50  1  0  0  0  0
 53 55  1  1  0  0  0
M  END
>  <MolRegNo>
312054

>  <m>
=

>  <Value>
8.8

>  <Unit>
nM

>  <Type>
Ki

>  <pValue>
8.06

>  <Ligand Efficiency>
0.18

>  <Binding Efficiency>
9.47

>  <Surface Efficiency>
6.32

>  <Assay Index>
235403

>  <Assay Category>


>  <Assay Organism>
Homo sapiens

>  <Target ID>
19

>  <Target Name>
Estrogen receptor alpha

>  <Target Organism>
Homo sapiens

>  <Target Description>
Target is a single protein chain

>  <Sequence Accession>
P03372

>  <Reference>
J Med Chem 47 (17), 4213-4230 (2004)

>  <Pubmed ID>
15293993

>  <DOI>
10.1021/jm0400045

$$$$
1369692
Actelion Java MolfileCreator 1.0

 64 72  0  0  1  0  0  0  0  0999 V2000
    0.0000   -0.0000   -0.0000 O   0  0  0  0  0  0  0  0  0  0  0  0
    1.3022    0.7736   -0.0000 C   0  0  0  0  0  0  0  0  0  0  0  0
    2.5914    0.0258   -0.0000 C   0  0  0  0  0  0  0  0  0  0  0  0
    1.2893    2.2949   -0.0000 C   0  0  0  0  0  0  0  0  0  0  0  0
    3.8807    0.7994   -0.0000 C   0  0  0  0  0  0  0  0  0  0  0  0
    2.5786    3.0427   -0.0000 C   0  0  0  0  0  0  0  0  0  0  0  0
    3.8807    2.3207   -0.0000 C   0  0  0  0  0  0  0  0  0  0  0  0
    5.1700    0.0516   -0.0000 C   0  0  0  0  0  0  0  0  0  0  0  0
    5.1571    3.0814   -0.0000 C   0  0  0  0  0  0  0  0  0  0  0  0
    6.4851    0.8251   -0.0000 C   0  0  0  0  0  0  0  0  0  0  0  0
    5.1442    4.6156   -0.0000 C   0  0  0  0  0  0  0  0  0  0  0  0
    6.4464    2.3465   -0.0000 C   0  0  0  0  0  0  0  0  0  0  0  0
    4.2546    5.0926   -0.0000 C   0  0  0  0  0  0  0  0  0  0  0  0
    6.4335    5.3892   -0.0000 C   0  0  0  0  0  0  0  0  0  0  0  0
    7.7357    3.1072   -0.0000 C   0  0  0  0  0  0  0  0  0  0  0  0
    4.0097    6.6011   -0.0000 C   0  0  0  0  0  0  0  0  0  0  0  0
    3.0556    4.1644   -0.0000 C   0  0  0  0  0  0  0  0  0  0  0  0
    7.7228    4.6414   -0.0000 C   0  0  0  0  0  0  0  0  0  0  0  0
    9.1668    2.6688   -0.0000 C   0  0  0  0  0  0  0  0  0  0  0  0
    2.5786    7.1684   -0.0000 C   0  0  0  0  0  0  0  0  0  0  0  0
    1.6245    4.7316   -0.0000 C   0  0  0  0  0  0  0  0  0  0  0  0
    9.1539    5.1055   -0.0000 C   0  0  0  0  0  0  0  0  0  0  0  0
    7.7357    6.2788   -0.0000 C   0  0  0  0  0  0  0  0  0  0  0  0
   10.0306    3.8936   -0.0000 C   0  0  0  0  0  0  0  0  0  0  0  0
    1.3924    6.2401   -0.0000 C   0  0  0  0  0  0  0  0  0  0  0  0
    9.1152    6.7429   -0.0000 O   0  0  0  0  0  0  0  0  0  0  0  0
   10.4431    5.8791   -0.0000 C   0  0  0  0  0  0  0  0  0  0  0  0
    0.0516    7.0137   -0.0000 N   0  0  0  0  0  0  0  0  0  0  0  0
   11.7324    6.6656   -0.0000 C   0  0  0  0  0  0  0  0  0  0  0  0
    0.0258    8.5608   -0.0000 C   0  0  0  0  0  0  0  0  0  0  0  0
   -1.2635    6.2659   -0.0000 C   0  0  0  0  0  0  0  0  0  0  0  0
   -1.4569    8.9476   -0.0000 C   0  0  0  0  0  0  0  0  0  0  0  0
   -1.4569   10.4947   -0.0000 O   0  0  0  0  0  0  0  0  0  0  0  0
   -1.4698   12.0161   -0.0000 C   0  0  0  0  0  0  0  0  0  0  0  0
   -0.1676   12.7896   -0.0000 C   0  0  0  0  0  0  0  0  0  0  0  0
   -0.1676   14.3110   -0.0000 O   0  0  0  0  0  0  0  0  0  0  0  0
    1.1217   15.0845   -0.0000 C   0  0  0  0  0  0  0  0  0  0  0  0
    2.4238   14.3368   -0.0000 C   0  0  0  0  0  0  0  0  0  0  0  0
    1.1088   16.6059   -0.0000 C   0  0  0  0  0  0  0  0  0  0  0  0
    3.7131   15.1103   -0.0000 C   0  0  0  0  0  0  0  0  0  0  0  0
    2.4109   17.3795   -0.0000 C   0  0  0  0  0  0  0  0  0  0  0  0
    3.7131   16.6317   -0.0000 C   0  0  0  0  0  0  0  0  0  0  0  0
    5.0024   14.3625   -0.0000 C   0  0  0  0  0  0  0  0  0  0  0  0
    5.0024   17.4052   -0.0000 C   0  0  0  0  0  0  0  0  0  0  0  0
    3.6873   18.1788   -0.0000 C   0  0  0  0  0  0  0  0  0  0  0  0
    6.3046   15.1232   -0.0000 C   0  0  0  0  0  0  0  0  0  0  0  0
    6.2917   16.6317   -0.0000 C   0  0  0  0  0  0  0  0  0  0  0  0
    5.0024   18.9266   -0.0000 C   0  0  0  0  0  0  0  0  0  0  0  0
    7.3618   14.0789   -0.0000 O   0  0  0  0  0  0  0  0  0  0  0  0
    7.5810   17.3795   -0.0000 C   0  0  0  0  0  0  0  0  0  0  0  0
    6.3304   19.6744   -0.0000 C   0  0  0  0  0  0  0  0  0  0  0  0
    7.6196   18.9395   -0.0000 C   0  0  0  0  0  0  0  0  0  0  0  0
    9.0378   16.9153   -0.0000 C   0  0  0  0  0  0  0  0  0  0  0  0
    6.3304   21.1570   -0.0000 O   0  0  0  0  0  0  0  0  0  0  0  0
    9.0507   19.3778   -0.0000 C   0  0  0  0  0  0  0  0  0  0  0  0
    7.6196   20.1256   -0.0000 C   0  0  0  0  0  0  0  0  0  0  0  0
    9.7985   18.0886   -0.0000 C   0  0  0  0  0  0  0  0  0  0  0  0
    9.0378   21.0281   -0.0000 C   0  0  0  0  0  0  0  0  0  0  0  0
   10.3271   21.7759   -0.0000 C   0  0  0  0  0  0  0  0  0  0  0  0
    7.9419   21.6599   -0.0000 C   0  0  0  0  0  0  0  0  0  0  0  0
   11.6422   21.0668   -0.0000 C   0  0  0  0  0  0  0  0  0  0  0  0
   12.9315   21.8017   -0.0000 C   0  0  0  0  0  0  0  0  0  0  0  0
   12.9186   23.3746   -0.0000 O   0  0  0  0  0  0  0  0  0  0  0  0
   14.2207   21.0926   -0.0000 O   0  0  0  0  0  0  0  0  0  0  0  0
  1  2  2  0  0  0  0
  2  3  1  0  0  0  0
  2  4  1  0  0  0  0
  3  5  2  0  0  0  0
  4  6  1  0  0  0  0
  5  7  1  0  0  0  0
  5  8  1  0  0  0  0
  7  9  2  0  0  0  0
  8 10  1  0  0  0  0
  9 11  1  0  0  0  0
  9 12  1  0  0  0  0
 11 13  1  1  0  0  0
 11 14  1  0  0  0  0
 12 15  1  0  0  0  0
 13 16  2  0  0  0  0
 13 17  1  0  0  0  0
 14 18  1  0  0  0  0
 15 19  1  1  0  0  0
 16 20  1  0  0  0  0
 17 21  2  0  0  0  0
 18 22  1  0  0  0  0
 18 23  1  1  0  0  0
 19 24  1  0  0  0  0
 20 25  2  0  0  0  0
 22 26  1  1  0  0  0
 22 27  1  0  0  0  0
 25 28  1  0  0  0  0
 27 29  3  0  0  0  0
 28 30  1  0  0  0  0
 28 31  1  0  0  0  0
 30 32  1  0  0  0  0
 32 33  1  0  0  0  0
 33 34  1  0  0  0  0
 34 35  1  0  0  0  0
 35 36  1  0  0  0  0
 37 36  1  1  0  0  0
 37 38  1  0  0  0  0
 37 39  1  0  0  0  0
 40 38  1  6  0  0  0
 39 41  1  0  0  0  0
 40 42  1  0  0  0  0
 40 43  1  0  0  0  0
 42 44  1  0  0  0  0
 42 45  1  1  0  0  0
 43 46  1  0  0  0  0
 47 44  1  6  0  0  0
 44 48  1  1  0  0  0
 46 49  1  6  0  0  0
 47 50  1  0  0  0  0
 48 51  1  0  0  0  0
 50 52  1  0  0  0  0
 50 53  1  1  0  0  0
 51 54  1  6  0  0  0
 52 55  1  0  0  0  0
 52 56  1  1  0  0  0
 53 57  1  0  0  0  0
 55 58  1  0  0  0  0
 58 59  1  0  0  0  0
 58 60  1  6  0  0  0
 59 61  1  0  0  0  0
 61 62  1  0  0  0  0
 62 63  2  0  0  0  0
 62 64  1  0  0  0  0
  6  7  1  0  0  0  0
 12 10  1  6  0  0  0
 15 18  1  0  0  0  0
 21 25  1  0  0  0  0
 22 24  1  0  0  0  0
 41 42  1  0  0  0  0
 46 47  1  0  0  0  0
 51 52  1  0  0  0  0
 55 57  1  1  0  0  0
M  END
>  <MolRegNo>
1369692

>  <m>
=

>  <Value>
14

>  <Unit>
nM

>  <Type>
Ki

>  <pValue>
7.85

>  <Ligand Efficiency>
0.17

>  <Binding Efficiency>
8.92

>  <Surface Efficiency>
5.74

>  <Assay Index>
235403

>  <Assay Category>


>  <Assay Organism>
Homo sapiens

>  <Target ID>
19

>  <Target Name>
Estrogen receptor alpha

>  <Target Organism>
Homo sapiens

>  <Target Description>
Target is a single protein chain

>  <Sequence Accession>
P03372

>  <Reference>
J Med Chem 47 (17), 4213-4230 (2004)

>  <Pubmed ID>
15293993

>  <DOI>
10.1021/jm0400045

$$$$
312268
Actelion Java MolfileCreator 1.0

 62 70  0  0  1  0  0  0  0  0999 V2000
    0.0000   -0.0000   -0.0000 O   0  0  0  0  0  0  0  0  0  0  0  0
    1.3088    0.7775   -0.0000 C   0  0  0  0  0  0  0  0  0  0  0  0
    2.6176    0.0130   -0.0000 C   0  0  0  0  0  0  0  0  0  0  0  0
    1.2959    2.3066   -0.0000 C   0  0  0  0  0  0  0  0  0  0  0  0
    3.8876    0.7905   -0.0000 C   0  0  0  0  0  0  0  0  0  0  0  0
    2.6047    3.0582   -0.0000 C   0  0  0  0  0  0  0  0  0  0  0  0
    3.9005    2.3196   -0.0000 C   0  0  0  0  0  0  0  0  0  0  0  0
    5.1964    0.0518   -0.0000 C   0  0  0  0  0  0  0  0  0  0  0  0
    5.1964    3.0841   -0.0000 C   0  0  0  0  0  0  0  0  0  0  0  0
    6.4922    0.8293   -0.0000 C   0  0  0  0  0  0  0  0  0  0  0  0
    5.1834    4.6132   -0.0000 C   0  0  0  0  0  0  0  0  0  0  0  0
    6.4922    2.3325   -0.0000 C   0  0  0  0  0  0  0  0  0  0  0  0
    4.2893    5.1057   -0.0000 C   0  0  0  0  0  0  0  0  0  0  0  0
    6.4793    5.3907   -0.0000 C   0  0  0  0  0  0  0  0  0  0  0  0
    7.7881    3.1100   -0.0000 C   0  0  0  0  0  0  0  0  0  0  0  0
    3.0841    4.1597   -0.0000 C   0  0  0  0  0  0  0  0  0  0  0  0
    4.0301    6.6218   -0.0000 C   0  0  0  0  0  0  0  0  0  0  0  0
    7.7751    4.6392   -0.0000 C   0  0  0  0  0  0  0  0  0  0  0  0
    9.2006    2.6695   -0.0000 C   0  0  0  0  0  0  0  0  0  0  0  0
    1.6457    4.7299   -0.0000 C   0  0  0  0  0  0  0  0  0  0  0  0
    2.6176    7.1661   -0.0000 C   0  0  0  0  0  0  0  0  0  0  0  0
    9.1876    5.1057   -0.0000 C   0  0  0  0  0  0  0  0  0  0  0  0
    7.7881    6.2849   -0.0000 C   0  0  0  0  0  0  0  0  0  0  0  0
   10.1076    3.9135   -0.0000 C   0  0  0  0  0  0  0  0  0  0  0  0
    1.4125    6.2460   -0.0000 C   0  0  0  0  0  0  0  0  0  0  0  0
    9.1746    6.7384   -0.0000 O   0  0  0  0  0  0  0  0  0  0  0  0
   10.4964    5.8832   -0.0000 C   0  0  0  0  0  0  0  0  0  0  0  0
    0.0907    7.0235   -0.0000 N   0  0  0  0  0  0  0  0  0  0  0  0
   11.8052    6.6736   -0.0000 C   0  0  0  0  0  0  0  0  0  0  0  0
    0.1037    8.3323   -0.0000 C   0  0  0  0  0  0  0  0  0  0  0  0
   -1.2440    6.2849   -0.0000 C   0  0  0  0  0  0  0  0  0  0  0  0
   -0.6479    8.7988   -0.0000 C   0  0  0  0  0  0  0  0  0  0  0  0
    0.8812   10.0299   -0.0000 C   0  0  0  0  0  0  0  0  0  0  0  0
    0.8812   11.5720   -0.0000 C   0  0  0  0  0  0  0  0  0  0  0  0
   -0.4406   12.3106   -0.0000 C   0  0  0  0  0  0  0  0  0  0  0  0
    2.1770   12.3495   -0.0000 C   0  0  0  0  0  0  0  0  0  0  0  0
   -1.7624   13.0881   -0.0000 O   0  0  0  0  0  0  0  0  0  0  0  0
   -0.4535   13.8527   -0.0000 C   0  0  0  0  0  0  0  0  0  0  0  0
    2.1770   13.8527   -0.0000 C   0  0  0  0  0  0  0  0  0  0  0  0
    3.4729   11.5720   -0.0000 C   0  0  0  0  0  0  0  0  0  0  0  0
    0.8423   14.6431   -0.0000 C   0  0  0  0  0  0  0  0  0  0  0  0
    3.4729   14.6172   -0.0000 C   0  0  0  0  0  0  0  0  0  0  0  0
    2.1511   15.3818   -0.0000 C   0  0  0  0  0  0  0  0  0  0  0  0
    4.7817   12.3365   -0.0000 C   0  0  0  0  0  0  0  0  0  0  0  0
    4.7687   13.8656   -0.0000 C   0  0  0  0  0  0  0  0  0  0  0  0
    3.4599   16.1722   -0.0000 C   0  0  0  0  0  0  0  0  0  0  0  0
    5.8443   11.2739   -0.0000 O   0  0  0  0  0  0  0  0  0  0  0  0
    6.0775   14.6302   -0.0000 C   0  0  0  0  0  0  0  0  0  0  0  0
    4.7947   16.9238   -0.0000 C   0  0  0  0  0  0  0  0  0  0  0  0
    6.0905   16.1593   -0.0000 C   0  0  0  0  0  0  0  0  0  0  0  0
    7.4900   14.1637   -0.0000 C   0  0  0  0  0  0  0  0  0  0  0  0
    4.7947   18.3881   -0.0000 O   0  0  0  0  0  0  0  0  0  0  0  0
    7.5289   16.6258   -0.0000 C   0  0  0  0  0  0  0  0  0  0  0  0
    6.1035   17.3774   -0.0000 C   0  0  0  0  0  0  0  0  0  0  0  0
    8.2805   15.3170   -0.0000 C   0  0  0  0  0  0  0  0  0  0  0  0
    7.5419   18.2845   -0.0000 C   0  0  0  0  0  0  0  0  0  0  0  0
    8.8377   19.0490   -0.0000 C   0  0  0  0  0  0  0  0  0  0  0  0
    6.4145   18.9454   -0.0000 C   0  0  0  0  0  0  0  0  0  0  0  0
   10.1465   18.3104   -0.0000 C   0  0  0  0  0  0  0  0  0  0  0  0
   11.4424   19.0749   -0.0000 C   0  0  0  0  0  0  0  0  0  0  0  0
   11.4294   20.6170   -0.0000 O   0  0  0  0  0  0  0  0  0  0  0  0
   12.7512   18.3363   -0.0000 O   0  0  0  0  0  0  0  0  0  0  0  0
  1  2  2  0  0  0  0
  2  3  1  0  0  0  0
  2  4  1  0  0  0  0
  3  5  2  0  0  0  0
  4  6  1  0  0  0  0
  5  7  1  0  0  0  0
  5  8  1  0  0  0  0
  7  9  2  0  0  0  0
  8 10  1  0  0  0  0
  9 11  1  0  0  0  0
  9 12  1  0  0  0  0
 11 13  1  1  0  0  0
 11 14  1  0  0  0  0
 12 15  1  0  0  0  0
 13 16  2  0  0  0  0
 13 17  1  0  0  0  0
 14 18  1  0  0  0  0
 15 19  1  1  0  0  0
 16 20  1  0  0  0  0
 17 21  2  0  0  0  0
 18 22  1  0  0  0  0
 18 23  1  1  0  0  0
 19 24  1  0  0  0  0
 20 25  2  0  0  0  0
 22 26  1  1  0  0  0
 22 27  1  0  0  0  0
 25 28  1  0  0  0  0
 27 29  3  0  0  0  0
 28 30  1  0  0  0  0
 28 31  1  0  0  0  0
 30 32  1  0  0  0  0
 32 33  1  0  0  0  0
 34 33  1  1  0  0  0
 34 35  1  0  0  0  0
 34 36  1  0  0  0  0
 35 37  1  6  0  0  0
 35 38  1  0  0  0  0
 36 39  1  0  0  0  0
 36 40  1  6  0  0  0
 38 41  1  0  0  0  0
 39 42  1  0  0  0  0
 39 43  1  1  0  0  0
 40 44  1  0  0  0  0
 45 42  1  6  0  0  0
 42 46  1  1  0  0  0
 44 47  1  6  0  0  0
 45 48  1  0  0  0  0
 46 49  1  0  0  0  0
 48 50  1  0  0  0  0
 48 51  1  1  0  0  0
 49 52  1  6  0  0  0
 50 53  1  0  0  0  0
 50 54  1  1  0  0  0
 51 55  1  0  0  0  0
 53 56  1  0  0  0  0
 56 57  1  0  0  0  0
 56 58  1  6  0  0  0
 57 59  1  0  0  0  0
 59 60  1  0  0  0  0
 60 61  2  0  0  0  0
 60 62  1  0  0  0  0
  6  7  1  0  0  0  0
 12 10  1  6  0  0  0
 15 18  1  0  0  0  0
 21 25  1  0  0  0  0
 22 24  1  0  0  0  0
 39 41  1  0  0  0  0
 44 45  1  0  0  0  0
 49 50  1  0  0  0  0
 53 55  1  1  0  0  0
M  END
>  <MolRegNo>
312268

>  <m>
=

>  <Value>
46

>  <Unit>
nM

>  <Type>
Ki

>  <pValue>
7.34

>  <Ligand Efficiency>
0.16

>  <Binding Efficiency>
8.63

>  <Surface Efficiency>
5.3

>  <Assay Index>
235403

>  <Assay Category>


>  <Assay Organism>
Homo sapiens

>  <Target ID>
19

>  <Target Name>
Estrogen receptor alpha

>  <Target Organism>
Homo sapiens

>  <Target Description>
Target is a single protein chain

>  <Sequence Accession>
P03372

>  <Reference>
J Med Chem 47 (17), 4213-4230 (2004)

>  <Pubmed ID>
15293993

>  <DOI>
10.1021/jm0400045

$$$$
312269
Actelion Java MolfileCreator 1.0

 65 73  0  0  1  0  0  0  0  0999 V2000
    0.0000   -0.0000   -0.0000 O   0  0  0  0  0  0  0  0  0  0  0  0
    1.2866    0.7720   -0.0000 C   0  0  0  0  0  0  0  0  0  0  0  0
    2.5861    0.0129   -0.0000 C   0  0  0  0  0  0  0  0  0  0  0  0
    1.2866    2.2773   -0.0000 C   0  0  0  0  0  0  0  0  0  0  0  0
    3.8727    0.7720   -0.0000 C   0  0  0  0  0  0  0  0  0  0  0  0
    2.5732    3.0493   -0.0000 C   0  0  0  0  0  0  0  0  0  0  0  0
    3.8598    2.3030   -0.0000 C   0  0  0  0  0  0  0  0  0  0  0  0
    5.1593    0.0386   -0.0000 C   0  0  0  0  0  0  0  0  0  0  0  0
    5.1464    3.0493   -0.0000 C   0  0  0  0  0  0  0  0  0  0  0  0
    6.4588    0.8234   -0.0000 C   0  0  0  0  0  0  0  0  0  0  0  0
    5.1336    4.5803   -0.0000 C   0  0  0  0  0  0  0  0  0  0  0  0
    6.4202    2.3288   -0.0000 C   0  0  0  0  0  0  0  0  0  0  0  0
    4.2201    5.0692   -0.0000 C   0  0  0  0  0  0  0  0  0  0  0  0
    6.4073    5.3652   -0.0000 C   0  0  0  0  0  0  0  0  0  0  0  0
    7.7068    3.1007   -0.0000 C   0  0  0  0  0  0  0  0  0  0  0  0
    3.0364    4.1171   -0.0000 C   0  0  0  0  0  0  0  0  0  0  0  0
    3.9885    6.5746   -0.0000 C   0  0  0  0  0  0  0  0  0  0  0  0
    7.6939    4.6061   -0.0000 C   0  0  0  0  0  0  0  0  0  0  0  0
    9.1478    2.6375   -0.0000 C   0  0  0  0  0  0  0  0  0  0  0  0
    1.6083    4.6833   -0.0000 C   0  0  0  0  0  0  0  0  0  0  0  0
    2.5604    7.1278   -0.0000 C   0  0  0  0  0  0  0  0  0  0  0  0
    9.1349    5.0950   -0.0000 C   0  0  0  0  0  0  0  0  0  0  0  0
    7.7068    6.2529   -0.0000 C   0  0  0  0  0  0  0  0  0  0  0  0
   10.0098    3.8727   -0.0000 C   0  0  0  0  0  0  0  0  0  0  0  0
    1.3509    6.1886   -0.0000 C   0  0  0  0  0  0  0  0  0  0  0  0
    9.0835    6.7032   -0.0000 O   0  0  0  0  0  0  0  0  0  0  0  0
   10.4087    5.8541   -0.0000 C   0  0  0  0  0  0  0  0  0  0  0  0
    0.0386    6.9606   -0.0000 N   0  0  0  0  0  0  0  0  0  0  0  0
   11.6953    6.6389   -0.0000 C   0  0  0  0  0  0  0  0  0  0  0  0
    0.0257    8.4788   -0.0000 C   0  0  0  0  0  0  0  0  0  0  0  0
   -1.2737    6.2272   -0.0000 C   0  0  0  0  0  0  0  0  0  0  0  0
    1.3123    9.2636   -0.0000 O   0  0  0  0  0  0  0  0  0  0  0  0
   -1.3252    9.1607   -0.0000 C   0  0  0  0  0  0  0  0  0  0  0  0
   -0.0129    9.9198   -0.0000 N   0  0  0  0  0  0  0  0  0  0  0  0
   -0.0257   11.4508   -0.0000 C   0  0  0  0  0  0  0  0  0  0  0  0
    1.4281   11.0777   -0.0000 O   0  0  0  0  0  0  0  0  0  0  0  0
    1.0422   12.5444   -0.0000 O   0  0  0  0  0  0  0  0  0  0  0  0
   -0.0386   13.5995   -0.0000 C   0  0  0  0  0  0  0  0  0  0  0  0
   -0.0515   15.1177   -0.0000 C   0  0  0  0  0  0  0  0  0  0  0  0
   -1.3895   12.8790   -0.0000 C   0  0  0  0  0  0  0  0  0  0  0  0
   -1.3638   15.9154   -0.0000 C   0  0  0  0  0  0  0  0  0  0  0  0
    1.2351   15.8768   -0.0000 C   0  0  0  0  0  0  0  0  0  0  0  0
   -2.7019   13.6381   -0.0000 C   0  0  0  0  0  0  0  0  0  0  0  0
   -2.6761   15.1691   -0.0000 C   0  0  0  0  0  0  0  0  0  0  0  0
   -1.3767   17.4336   -0.0000 C   0  0  0  0  0  0  0  0  0  0  0  0
    1.2480   17.4078   -0.0000 C   0  0  0  0  0  0  0  0  0  0  0  0
    2.6633   15.3878   -0.0000 C   0  0  0  0  0  0  0  0  0  0  0  0
   -3.9885   12.9047   -0.0000 C   0  0  0  0  0  0  0  0  0  0  0  0
   -3.9885   15.9411   -0.0000 C   0  0  0  0  0  0  0  0  0  0  0  0
   -2.7147   16.6873   -0.0000 C   0  0  0  0  0  0  0  0  0  0  0  0
   -0.0515   18.1927   -0.0000 C   0  0  0  0  0  0  0  0  0  0  0  0
    2.6890   17.8710   -0.0000 C   0  0  0  0  0  0  0  0  0  0  0  0
    1.2609   18.5915   -0.0000 C   0  0  0  0  0  0  0  0  0  0  0  0
    3.4481   16.5458   -0.0000 C   0  0  0  0  0  0  0  0  0  0  0  0
   -5.3008   13.6638   -0.0000 C   0  0  0  0  0  0  0  0  0  0  0  0
   -5.3008   15.1949   -0.0000 C   0  0  0  0  0  0  0  0  0  0  0  0
   -0.0515   19.6337   -0.0000 O   0  0  0  0  0  0  0  0  0  0  0  0
    2.6890   19.5050   -0.0000 C   0  0  0  0  0  0  0  0  0  0  0  0
   -6.6132   12.9304   -0.0000 O   0  0  0  0  0  0  0  0  0  0  0  0
    4.0014   20.2770   -0.0000 C   0  0  0  0  0  0  0  0  0  0  0  0
    1.5825   20.1612   -0.0000 C   0  0  0  0  0  0  0  0  0  0  0  0
    5.2751   19.5307   -0.0000 C   0  0  0  0  0  0  0  0  0  0  0  0
    6.5874   20.3156   -0.0000 C   0  0  0  0  0  0  0  0  0  0  0  0
    6.5617   21.8466   -0.0000 O   0  0  0  0  0  0  0  0  0  0  0  0
    7.8740   19.5822   -0.0000 O   0  0  0  0  0  0  0  0  0  0  0  0
  1  2  2  0  0  0  0
  2  3  1  0  0  0  0
  2  4  1  0  0  0  0
  3  5  2  0  0  0  0
  4  6  1  0  0  0  0
  5  7  1  0  0  0  0
  5  8  1  0  0  0  0
  7  9  2  0  0  0  0
  8 10  1  0  0  0  0
  9 11  1  0  0  0  0
  9 12  1  0  0  0  0
 11 13  1  1  0  0  0
 11 14  1  0  0  0  0
 12 15  1  0  0  0  0
 13 16  2  0  0  0  0
 13 17  1  0  0  0  0
 14 18  1  0  0  0  0
 15 19  1  1  0  0  0
 16 20  1  0  0  0  0
 17 21  2  0  0  0  0
 18 22  1  0  0  0  0
 18 23  1  1  0  0  0
 19 24  1  0  0  0  0
 20 25  2  0  0  0  0
 22 26  1  1  0  0  0
 22 27  1  0  0  0  0
 25 28  1  0  0  0  0
 27 29  3  0  0  0  0
 28 30  1  0  0  0  0
 28 31  1  0  0  0  0
 30 32  2  0  0  0  0
 30 33  1  0  0  0  0
 33 34  1  0  0  0  0
 34 35  1  0  0  0  0
 35 36  2  0  0  0  0
 35 37  1  0  0  0  0
 38 37  1  6  0  0  0
 39 38  1  6  0  0  0
 38 40  1  0  0  0  0
 39 41  1  0  0  0  0
 39 42  1  0  0  0  0
 43 40  1  6  0  0  0
 41 44  1  0  0  0  0
 41 45  1  1  0  0  0
 42 46  1  0  0  0  0
 42 47  1  1  0  0  0
 43 48  1  0  0  0  0
 44 49  1  0  0  0  0
 44 50  1  1  0  0  0
 45 51  1  0  0  0  0
 46 52  1  0  0  0  0
 46 53  1  1  0  0  0
 47 54  1  0  0  0  0
 48 55  1  0  0  0  0
 49 56  1  0  0  0  0
 51 57  1  6  0  0  0
 52 58  1  0  0  0  0
 55 59  1  0  0  0  0
 58 60  1  0  0  0  0
 58 61  1  6  0  0  0
 60 62  1  0  0  0  0
 62 63  1  0  0  0  0
 63 64  2  0  0  0  0
 63 65  1  0  0  0  0
  6  7  1  0  0  0  0
 12 10  1  6  0  0  0
 15 18  1  0  0  0  0
 21 25  1  0  0  0  0
 22 24  1  0  0  0  0
 43 44  1  0  0  0  0
 46 51  1  0  0  0  0
 52 54  1  1  0  0  0
 55 56  1  0  0  0  0
M  END
>  <MolRegNo>
312269

>  <m>
=

>  <Value>
94

>  <Unit>
nM

>  <Type>
Ki

>  <pValue>
7.03

>  <Ligand Efficiency>
0.15

>  <Binding Efficiency>
7.87

>  <Surface Efficiency>
4.05

>  <Assay Index>
235403

>  <Assay Category>


>  <Assay Organism>
Homo sapiens

>  <Target ID>
19

>  <Target Name>
Estrogen receptor alpha

>  <Target Organism>
Homo sapiens

>  <Target Description>
Target is a single protein chain

>  <Sequence Accession>
P03372

>  <Reference>
J Med Chem 47 (17), 4213-4230 (2004)

>  <Pubmed ID>
15293993

>  <DOI>
10.1021/jm0400045

$$$$
324779
Actelion Java MolfileCreator 1.0

 31 34  0  0  0  0  0  0  0  0999 V2000
    0.0000   -0.0000   -0.0000 O   0  0  0  0  0  0  0  0  0  0  0  0
   -0.0120   -1.4900   -0.0000 C   0  0  0  0  0  0  0  0  0  0  0  0
   -1.3217   -2.2349   -0.0000 O   0  0  0  0  0  0  0  0  0  0  0  0
    1.2737   -2.2349   -0.0000 C   0  0  0  0  0  0  0  0  0  0  0  0
    2.5594   -1.4659   -0.0000 C   0  0  0  0  0  0  0  0  0  0  0  0
    3.8450   -2.2109   -0.0000 C   0  0  0  0  0  0  0  0  0  0  0  0
    5.1307   -1.4419   -0.0000 C   0  0  0  0  0  0  0  0  0  0  0  0
    3.8330   -3.7009   -0.0000 C   0  0  0  0  0  0  0  0  0  0  0  0
    6.4404   -2.1869   -0.0000 C   0  0  0  0  0  0  0  0  0  0  0  0
    5.1187   -4.4458   -0.0000 C   0  0  0  0  0  0  0  0  0  0  0  0
    6.4284   -3.6768   -0.0000 C   0  0  0  0  0  0  0  0  0  0  0  0
    7.7141   -4.4218   -0.0000 O   0  0  0  0  0  0  0  0  0  0  0  0
    7.7021   -5.9118   -0.0000 C   0  0  0  0  0  0  0  0  0  0  0  0
    9.0118   -6.6567   -0.0000 C   0  0  0  0  0  0  0  0  0  0  0  0
    6.4164   -6.6567   -0.0000 C   0  0  0  0  0  0  0  0  0  0  0  0
   10.2975   -5.8877   -0.0000 C   0  0  0  0  0  0  0  0  0  0  0  0
    8.9998   -8.1467   -0.0000 C   0  0  0  0  0  0  0  0  0  0  0  0
    6.4044   -8.1707   -0.0000 C   0  0  0  0  0  0  0  0  0  0  0  0
    5.0827   -5.9118   -0.0000 C   0  0  0  0  0  0  0  0  0  0  0  0
   11.5832   -6.6327   -0.0000 C   0  0  0  0  0  0  0  0  0  0  0  0
   10.2855   -4.3617   -0.0000 C   0  0  0  0  0  0  0  0  0  0  0  0
    7.6901   -8.8917   -0.0000 N   0  0  0  0  0  0  0  0  0  0  0  0
   10.2855   -8.8917   -0.0000 C   0  0  0  0  0  0  0  0  0  0  0  0
    5.0706   -8.9157   -0.0000 C   0  0  0  0  0  0  0  0  0  0  0  0
    3.7729   -6.6567   -0.0000 C   0  0  0  0  0  0  0  0  0  0  0  0
   12.8689   -5.8637   -0.0000 C   0  0  0  0  0  0  0  0  0  0  0  0
   11.5712   -3.5807   -0.0000 C   0  0  0  0  0  0  0  0  0  0  0  0
   10.2975  -10.3816   -0.0000 C   0  0  0  0  0  0  0  0  0  0  0  0
    3.7609   -8.1467   -0.0000 C   0  0  0  0  0  0  0  0  0  0  0  0
   12.8569   -4.3257   -0.0000 C   0  0  0  0  0  0  0  0  0  0  0  0
    2.4512   -8.8917   -0.0000 O   0  0  0  0  0  0  0  0  0  0  0  0
  1  2  2  0  0  0  0
  2  3  1  0  0  0  0
  2  4  1  0  0  0  0
  4  5  2  0  0  0  0
  5  6  1  0  0  0  0
  6  7  2  0  0  0  0
  6  8  1  0  0  0  0
  7  9  1  0  0  0  0
  8 10  2  0  0  0  0
  9 11  2  0  0  0  0
 11 12  1  0  0  0  0
 12 13  1  0  0  0  0
 13 14  2  0  0  0  0
 13 15  1  0  0  0  0
 14 16  1  0  0  0  0
 14 17  1  0  0  0  0
 15 18  1  0  0  0  0
 15 19  2  0  0  0  0
 16 20  2  0  0  0  0
 16 21  1  0  0  0  0
 17 22  2  0  0  0  0
 17 23  1  0  0  0  0
 18 24  2  0  0  0  0
 19 25  1  0  0  0  0
 20 26  1  0  0  0  0
 21 27  2  0  0  0  0
 23 28  1  0  0  0  0
 24 29  1  0  0  0  0
 26 30  2  0  0  0  0
 29 31  1  0  0  0  0
 10 11  1  0  0  0  0
 18 22  1  0  0  0  0
 25 29  2  0  0  0  0
 27 30  1  0  0  0  0
M  END
>  <MolRegNo>
324779

>  <m>
=

>  <Value>
125.89

>  <Unit>
nM

>  <Type>
Ki

>  <pValue>
6.9

>  <Ligand Efficiency>
0.3

>  <Binding Efficiency>
16.77

>  <Surface Efficiency>
8.66

>  <Assay Index>
236851

>  <Assay Category>


>  <Assay Organism>
Homo sapiens

>  <Target ID>
19

>  <Target Name>
Estrogen receptor alpha

>  <Target Organism>
Homo sapiens

>  <Target Description>
Target is a single protein chain

>  <Sequence Accession>
P03372

>  <Reference>
J Med Chem 48 (6), 2243-2247 (2005)

>  <Pubmed ID>
15771467

>  <DOI>
10.1021/jm040154f

$$$$
324045
Actelion Java MolfileCreator 1.0

 31 34  0  0  0  0  0  0  0  0999 V2000
    0.0000   -0.0000   -0.0000 O   0  0  0  0  0  0  0  0  0  0  0  0
   -0.0120   -1.4900   -0.0000 C   0  0  0  0  0  0  0  0  0  0  0  0
   -1.3217   -2.2349   -0.0000 N   0  0  0  0  0  0  0  0  0  0  0  0
    1.2737   -2.2349   -0.0000 C   0  0  0  0  0  0  0  0  0  0  0  0
    2.5594   -1.4659   -0.0000 C   0  0  0  0  0  0  0  0  0  0  0  0
    3.8450   -2.2109   -0.0000 C   0  0  0  0  0  0  0  0  0  0  0  0
    5.1307   -1.4419   -0.0000 C   0  0  0  0  0  0  0  0  0  0  0  0
    3.8330   -3.7009   -0.0000 C   0  0  0  0  0  0  0  0  0  0  0  0
    6.4404   -2.1869   -0.0000 C   0  0  0  0  0  0  0  0  0  0  0  0
    5.1187   -4.4458   -0.0000 C   0  0  0  0  0  0  0  0  0  0  0  0
    6.4284   -3.6768   -0.0000 C   0  0  0  0  0  0  0  0  0  0  0  0
    7.7141   -4.4218   -0.0000 O   0  0  0  0  0  0  0  0  0  0  0  0
    7.7021   -5.9118   -0.0000 C   0  0  0  0  0  0  0  0  0  0  0  0
    9.0118   -6.6567   -0.0000 C   0  0  0  0  0  0  0  0  0  0  0  0
    6.4164   -6.6567   -0.0000 C   0  0  0  0  0  0  0  0  0  0  0  0
   10.2975   -5.8877   -0.0000 C   0  0  0  0  0  0  0  0  0  0  0  0
    8.9998   -8.1467   -0.0000 C   0  0  0  0  0  0  0  0  0  0  0  0
    6.4044   -8.1707   -0.0000 C   0  0  0  0  0  0  0  0  0  0  0  0
    5.0827   -5.9118   -0.0000 C   0  0  0  0  0  0  0  0  0  0  0  0
   11.5832   -6.6327   -0.0000 C   0  0  0  0  0  0  0  0  0  0  0  0
   10.2855   -4.3617   -0.0000 C   0  0  0  0  0  0  0  0  0  0  0  0
    7.6901   -8.8917   -0.0000 N   0  0  0  0  0  0  0  0  0  0  0  0
   10.2855   -8.8917   -0.0000 C   0  0  0  0  0  0  0  0  0  0  0  0
    5.0706   -8.9157   -0.0000 C   0  0  0  0  0  0  0  0  0  0  0  0
    3.7729   -6.6567   -0.0000 C   0  0  0  0  0  0  0  0  0  0  0  0
   12.8689   -5.8637   -0.0000 C   0  0  0  0  0  0  0  0  0  0  0  0
   11.5712   -3.5807   -0.0000 C   0  0  0  0  0  0  0  0  0  0  0  0
   10.2975  -10.3816   -0.0000 C   0  0  0  0  0  0  0  0  0  0  0  0
    3.7609   -8.1467   -0.0000 C   0  0  0  0  0  0  0  0  0  0  0  0
   12.8569   -4.3257   -0.0000 C   0  0  0  0  0  0  0  0  0  0  0  0
    2.4512   -8.8917   -0.0000 O   0  0  0  0  0  0  0  0  0  0  0  0
  1  2  2  0  0  0  0
  2  3  1  0  0  0  0
  2  4  1  0  0  0  0
  4  5  2  0  0  0  0
  5  6  1  0  0  0  0
  6  7  2  0  0  0  0
  6  8  1  0  0  0  0
  7  9  1  0  0  0  0
  8 10  2  0  0  0  0
  9 11  2  0  0  0  0
 11 12  1  0  0  0  0
 12 13  1  0  0  0  0
 13 14  2  0  0  0  0
 13 15  1  0  0  0  0
 14 16  1  0  0  0  0
 14 17  1  0  0  0  0
 15 18  1  0  0  0  0
 15 19  2  0  0  0  0
 16 20  2  0  0  0  0
 16 21  1  0  0  0  0
 17 22  2  0  0  0  0
 17 23  1  0  0  0  0
 18 24  2  0  0  0  0
 19 25  1  0  0  0  0
 20 26  1  0  0  0  0
 21 27  2  0  0  0  0
 23 28  1  0  0  0  0
 24 29  1  0  0  0  0
 26 30  2  0  0  0  0
 29 31  1  0  0  0  0
 10 11  1  0  0  0  0
 18 22  1  0  0  0  0
 25 29  2  0  0  0  0
 27 30  1  0  0  0  0
M  END
>  <MolRegNo>
324045

>  <m>
=

>  <Value>
15.85

>  <Unit>
nM

>  <Type>
Ki

>  <pValue>
7.8

>  <Ligand Efficiency>
0.34

>  <Binding Efficiency>
19

>  <Surface Efficiency>
9.13

>  <Assay Index>
236851

>  <Assay Category>


>  <Assay Organism>
Homo sapiens

>  <Target ID>
19

>  <Target Name>
Estrogen receptor alpha

>  <Target Organism>
Homo sapiens

>  <Target Description>
Target is a single protein chain

>  <Sequence Accession>
P03372

>  <Reference>
J Med Chem 48 (6), 2243-2247 (2005)

>  <Pubmed ID>
15771467

>  <DOI>
10.1021/jm040154f

$$$$
323778
Actelion Java MolfileCreator 1.0

 34 37  0  0  0  0  0  0  0  0999 V2000
    0.0000   -0.0000   -0.0000 O   0  0  0  0  0  0  0  0  0  0  0  0
   -0.0120   -1.4952   -0.0000 C   0  0  0  0  0  0  0  0  0  0  0  0
   -1.3278   -2.2369   -0.0000 N   0  0  0  0  0  0  0  0  0  0  0  0
    1.2919   -2.2369   -0.0000 C   0  0  0  0  0  0  0  0  0  0  0  0
   -1.3397   -3.7321   -0.0000 C   0  0  0  0  0  0  0  0  0  0  0  0
    2.5838   -1.4713   -0.0000 C   0  0  0  0  0  0  0  0  0  0  0  0
   -2.6556   -4.4738   -0.0000 C   0  0  0  0  0  0  0  0  0  0  0  0
   -0.0478   -4.4738   -0.0000 C   0  0  0  0  0  0  0  0  0  0  0  0
    3.8637   -2.2130   -0.0000 C   0  0  0  0  0  0  0  0  0  0  0  0
    5.1556   -1.4354   -0.0000 C   0  0  0  0  0  0  0  0  0  0  0  0
    3.8518   -3.7082   -0.0000 C   0  0  0  0  0  0  0  0  0  0  0  0
    6.4355   -2.1771   -0.0000 C   0  0  0  0  0  0  0  0  0  0  0  0
    5.1436   -4.4499   -0.0000 C   0  0  0  0  0  0  0  0  0  0  0  0
    6.4236   -3.6843   -0.0000 C   0  0  0  0  0  0  0  0  0  0  0  0
    7.7155   -4.4259   -0.0000 O   0  0  0  0  0  0  0  0  0  0  0  0
    7.7274   -5.9212   -0.0000 C   0  0  0  0  0  0  0  0  0  0  0  0
    9.0074   -6.6509   -0.0000 C   0  0  0  0  0  0  0  0  0  0  0  0
    6.4116   -6.6628   -0.0000 C   0  0  0  0  0  0  0  0  0  0  0  0
   10.2993   -5.8853   -0.0000 C   0  0  0  0  0  0  0  0  0  0  0  0
    9.0193   -8.1581   -0.0000 C   0  0  0  0  0  0  0  0  0  0  0  0
    6.3997   -8.1581   -0.0000 C   0  0  0  0  0  0  0  0  0  0  0  0
    5.0958   -5.9092   -0.0000 C   0  0  0  0  0  0  0  0  0  0  0  0
   11.5912   -6.6269   -0.0000 C   0  0  0  0  0  0  0  0  0  0  0  0
   10.2873   -4.3661   -0.0000 C   0  0  0  0  0  0  0  0  0  0  0  0
    7.6915   -8.8997   -0.0000 N   0  0  0  0  0  0  0  0  0  0  0  0
   10.3112   -8.8877   -0.0000 C   0  0  0  0  0  0  0  0  0  0  0  0
    5.0838   -8.8997   -0.0000 C   0  0  0  0  0  0  0  0  0  0  0  0
    3.7919   -6.6509   -0.0000 C   0  0  0  0  0  0  0  0  0  0  0  0
   12.8950   -5.8614   -0.0000 C   0  0  0  0  0  0  0  0  0  0  0  0
   11.5792   -3.6006   -0.0000 C   0  0  0  0  0  0  0  0  0  0  0  0
   10.2993  -10.3830   -0.0000 C   0  0  0  0  0  0  0  0  0  0  0  0
    3.7800   -8.1341   -0.0000 C   0  0  0  0  0  0  0  0  0  0  0  0
   12.8830   -4.3422   -0.0000 C   0  0  0  0  0  0  0  0  0  0  0  0
    2.4522   -8.8758   -0.0000 O   0  0  0  0  0  0  0  0  0  0  0  0
  1  2  2  0  0  0  0
  2  3  1  0  0  0  0
  2  4  1  0  0  0  0
  3  5  1  0  0  0  0
  4  6  2  0  0  0  0
  5  7  1  0  0  0  0
  5  8  1  0  0  0  0
  6  9  1  0  0  0  0
  9 10  2  0  0  0  0
  9 11  1  0  0  0  0
 10 12  1  0  0  0  0
 11 13  2  0  0  0  0
 12 14  2  0  0  0  0
 14 15  1  0  0  0  0
 15 16  1  0  0  0  0
 16 17  2  0  0  0  0
 16 18  1  0  0  0  0
 17 19  1  0  0  0  0
 17 20  1  0  0  0  0
 18 21  1  0  0  0  0
 18 22  2  0  0  0  0
 19 23  2  0  0  0  0
 19 24  1  0  0  0  0
 20 25  2  0  0  0  0
 20 26  1  0  0  0  0
 21 27  2  0  0  0  0
 22 28  1  0  0  0  0
 23 29  1  0  0  0  0
 24 30  2  0  0  0  0
 26 31  1  0  0  0  0
 27 32  1  0  0  0  0
 29 33  2  0  0  0  0
 32 34  1  0  0  0  0
 13 14  1  0  0  0  0
 21 25  1  0  0  0  0
 28 32  2  0  0  0  0
 30 33  1  0  0  0  0
M  END
>  <MolRegNo>
323778

>  <m>
=

>  <Value>
10

>  <Unit>
nM

>  <Type>
Ki

>  <pValue>
8

>  <Ligand Efficiency>
0.32

>  <Binding Efficiency>
17.68

>  <Surface Efficiency>
11.2

>  <Assay Index>
236851

>  <Assay Category>


>  <Assay Organism>
Homo sapiens

>  <Target ID>
19

>  <Target Name>
Estrogen receptor alpha

>  <Target Organism>
Homo sapiens

>  <Target Description>
Target is a single protein chain

>  <Sequence Accession>
P03372

>  <Reference>
J Med Chem 48 (6), 2243-2247 (2005)

>  <Pubmed ID>
15771467

>  <DOI>
10.1021/jm040154f

$$$$
324155
Actelion Java MolfileCreator 1.0

 33 36  0  0  0  0  0  0  0  0999 V2000
    0.0000   -0.0000   -0.0000 O   0  0  0  0  0  0  0  0  0  0  0  0
   -0.0120   -1.4885   -0.0000 C   0  0  0  0  0  0  0  0  0  0  0  0
   -1.3325   -2.2448   -0.0000 N   0  0  0  0  0  0  0  0  0  0  0  0
    1.2725   -2.2448   -0.0000 C   0  0  0  0  0  0  0  0  0  0  0  0
   -2.6410   -1.4645   -0.0000 C   0  0  0  0  0  0  0  0  0  0  0  0
   -1.3445   -3.7213   -0.0000 C   0  0  0  0  0  0  0  0  0  0  0  0
    2.5689   -1.4645   -0.0000 C   0  0  0  0  0  0  0  0  0  0  0  0
    3.8534   -2.2208   -0.0000 C   0  0  0  0  0  0  0  0  0  0  0  0
    5.1379   -1.4405   -0.0000 C   0  0  0  0  0  0  0  0  0  0  0  0
    3.8414   -3.6973   -0.0000 C   0  0  0  0  0  0  0  0  0  0  0  0
    6.4223   -2.1968   -0.0000 C   0  0  0  0  0  0  0  0  0  0  0  0
    5.1258   -4.4536   -0.0000 C   0  0  0  0  0  0  0  0  0  0  0  0
    6.4103   -3.6733   -0.0000 C   0  0  0  0  0  0  0  0  0  0  0  0
    7.7188   -4.4296   -0.0000 O   0  0  0  0  0  0  0  0  0  0  0  0
    7.7068   -5.9061   -0.0000 C   0  0  0  0  0  0  0  0  0  0  0  0
    8.9912   -6.6504   -0.0000 C   0  0  0  0  0  0  0  0  0  0  0  0
    6.3983   -6.6624   -0.0000 C   0  0  0  0  0  0  0  0  0  0  0  0
   10.2757   -5.8821   -0.0000 C   0  0  0  0  0  0  0  0  0  0  0  0
    8.9912   -8.1509   -0.0000 C   0  0  0  0  0  0  0  0  0  0  0  0
    6.3863   -8.1629   -0.0000 C   0  0  0  0  0  0  0  0  0  0  0  0
    5.0898   -5.9061   -0.0000 C   0  0  0  0  0  0  0  0  0  0  0  0
   11.5602   -6.6264   -0.0000 C   0  0  0  0  0  0  0  0  0  0  0  0
   10.2637   -4.3696   -0.0000 C   0  0  0  0  0  0  0  0  0  0  0  0
    7.6708   -8.8952   -0.0000 N   0  0  0  0  0  0  0  0  0  0  0  0
   10.2877   -8.8952   -0.0000 C   0  0  0  0  0  0  0  0  0  0  0  0
    5.0778   -8.9072   -0.0000 C   0  0  0  0  0  0  0  0  0  0  0  0
    3.7814   -6.6504   -0.0000 C   0  0  0  0  0  0  0  0  0  0  0  0
   12.8686   -5.8581   -0.0000 C   0  0  0  0  0  0  0  0  0  0  0  0
   11.5482   -3.6013   -0.0000 C   0  0  0  0  0  0  0  0  0  0  0  0
   10.2757  -10.3837   -0.0000 C   0  0  0  0  0  0  0  0  0  0  0  0
    3.7694   -8.1629   -0.0000 C   0  0  0  0  0  0  0  0  0  0  0  0
   12.8566   -4.3216   -0.0000 C   0  0  0  0  0  0  0  0  0  0  0  0
    2.4369   -8.8832   -0.0000 O   0  0  0  0  0  0  0  0  0  0  0  0
  1  2  2  0  0  0  0
  2  3  1  0  0  0  0
  2  4  1  0  0  0  0
  3  5  1  0  0  0  0
  3  6  1  0  0  0  0
  4  7  2  0  0  0  0
  7  8  1  0  0  0  0
  8  9  2  0  0  0  0
  8 10  1  0  0  0  0
  9 11  1  0  0  0  0
 10 12  2  0  0  0  0
 11 13  2  0  0  0  0
 13 14  1  0  0  0  0
 14 15  1  0  0  0  0
 15 16  2  0  0  0  0
 15 17  1  0  0  0  0
 16 18  1  0  0  0  0
 16 19  1  0  0  0  0
 17 20  1  0  0  0  0
 17 21  2  0  0  0  0
 18 22  2  0  0  0  0
 18 23  1  0  0  0  0
 19 24  2  0  0  0  0
 19 25  1  0  0  0  0
 20 26  2  0  0  0  0
 21 27  1  0  0  0  0
 22 28  1  0  0  0  0
 23 29  2  0  0  0  0
 25 30  1  0  0  0  0
 26 31  1  0  0  0  0
 28 32  2  0  0  0  0
 31 33  1  0  0  0  0
 12 13  1  0  0  0  0
 20 24  1  0  0  0  0
 27 31  2  0  0  0  0
 29 32  1  0  0  0  0
M  END
>  <MolRegNo>
324155

>  <m>
=

>  <Value>
10

>  <Unit>
nM

>  <Type>
Ki

>  <pValue>
8

>  <Ligand Efficiency>
0.33

>  <Binding Efficiency>
18.24

>  <Surface Efficiency>
12.77

>  <Assay Index>
236851

>  <Assay Category>


>  <Assay Organism>
Homo sapiens

>  <Target ID>
19

>  <Target Name>
Estrogen receptor alpha

>  <Target Organism>
Homo sapiens

>  <Target Description>
Target is a single protein chain

>  <Sequence Accession>
P03372

>  <Reference>
J Med Chem 48 (6), 2243-2247 (2005)

>  <Pubmed ID>
15771467

>  <DOI>
10.1021/jm040154f

$$$$
323913
Actelion Java MolfileCreator 1.0

 36 40  0  0  0  0  0  0  0  0999 V2000
    0.0000   -0.0000   -0.0000 O   0  0  0  0  0  0  0  0  0  0  0  0
   -0.0119   -1.4913   -0.0000 C   0  0  0  0  0  0  0  0  0  0  0  0
   -1.3243   -2.2430   -0.0000 N   0  0  0  0  0  0  0  0  0  0  0  0
    1.2766   -2.2430   -0.0000 C   0  0  0  0  0  0  0  0  0  0  0  0
   -1.3362   -3.7343   -0.0000 C   0  0  0  0  0  0  0  0  0  0  0  0
   -2.6486   -1.4675   -0.0000 C   0  0  0  0  0  0  0  0  0  0  0  0
    2.5770   -1.4675   -0.0000 C   0  0  0  0  0  0  0  0  0  0  0  0
   -2.6367   -4.4740   -0.0000 C   0  0  0  0  0  0  0  0  0  0  0  0
   -3.9371   -2.2191   -0.0000 C   0  0  0  0  0  0  0  0  0  0  0  0
    3.8655   -2.2191   -0.0000 C   0  0  0  0  0  0  0  0  0  0  0  0
   -3.9490   -3.7104   -0.0000 C   0  0  0  0  0  0  0  0  0  0  0  0
    3.8536   -3.7104   -0.0000 C   0  0  0  0  0  0  0  0  0  0  0  0
    5.1540   -1.4436   -0.0000 C   0  0  0  0  0  0  0  0  0  0  0  0
    5.1421   -4.4501   -0.0000 C   0  0  0  0  0  0  0  0  0  0  0  0
    6.4425   -2.1952   -0.0000 C   0  0  0  0  0  0  0  0  0  0  0  0
    6.4306   -3.6866   -0.0000 C   0  0  0  0  0  0  0  0  0  0  0  0
    7.7191   -4.4263   -0.0000 O   0  0  0  0  0  0  0  0  0  0  0  0
    7.7191   -5.9176   -0.0000 C   0  0  0  0  0  0  0  0  0  0  0  0
    9.0076   -6.6454   -0.0000 C   0  0  0  0  0  0  0  0  0  0  0  0
    6.4068   -6.6573   -0.0000 C   0  0  0  0  0  0  0  0  0  0  0  0
   10.2961   -5.8818   -0.0000 C   0  0  0  0  0  0  0  0  0  0  0  0
    9.0076   -8.1486   -0.0000 C   0  0  0  0  0  0  0  0  0  0  0  0
    6.3948   -8.1486   -0.0000 C   0  0  0  0  0  0  0  0  0  0  0  0
    5.0944   -5.9057   -0.0000 C   0  0  0  0  0  0  0  0  0  0  0  0
   10.2842   -4.3666   -0.0000 C   0  0  0  0  0  0  0  0  0  0  0  0
   11.5846   -6.6215   -0.0000 C   0  0  0  0  0  0  0  0  0  0  0  0
    7.6953   -8.8883   -0.0000 N   0  0  0  0  0  0  0  0  0  0  0  0
   10.3081   -8.8883   -0.0000 C   0  0  0  0  0  0  0  0  0  0  0  0
    5.0825   -8.9003   -0.0000 C   0  0  0  0  0  0  0  0  0  0  0  0
    3.7820   -6.6454   -0.0000 C   0  0  0  0  0  0  0  0  0  0  0  0
   11.5727   -3.5911   -0.0000 C   0  0  0  0  0  0  0  0  0  0  0  0
   12.8732   -5.8579   -0.0000 C   0  0  0  0  0  0  0  0  0  0  0  0
   10.2961  -10.3797   -0.0000 C   0  0  0  0  0  0  0  0  0  0  0  0
    3.7701   -8.1367   -0.0000 C   0  0  0  0  0  0  0  0  0  0  0  0
   12.8612   -4.3308   -0.0000 C   0  0  0  0  0  0  0  0  0  0  0  0
    2.4458   -8.8645   -0.0000 O   0  0  0  0  0  0  0  0  0  0  0  0
  1  2  2  0  0  0  0
  2  3  1  0  0  0  0
  2  4  1  0  0  0  0
  3  5  1  0  0  0  0
  3  6  1  0  0  0  0
  4  7  2  0  0  0  0
  5  8  1  0  0  0  0
  6  9  1  0  0  0  0
  7 10  1  0  0  0  0
  8 11  1  0  0  0  0
 10 12  2  0  0  0  0
 10 13  1  0  0  0  0
 12 14  1  0  0  0  0
 13 15  2  0  0  0  0
 14 16  2  0  0  0  0
 16 17  1  0  0  0  0
 17 18  1  0  0  0  0
 18 19  2  0  0  0  0
 18 20  1  0  0  0  0
 19 21  1  0  0  0  0
 19 22  1  0  0  0  0
 20 23  1  0  0  0  0
 20 24  2  0  0  0  0
 21 25  2  0  0  0  0
 21 26  1  0  0  0  0
 22 27  2  0  0  0  0
 22 28  1  0  0  0  0
 23 29  2  0  0  0  0
 24 30  1  0  0  0  0
 25 31  1  0  0  0  0
 26 32  2  0  0  0  0
 28 33  1  0  0  0  0
 29 34  1  0  0  0  0
 31 35  2  0  0  0  0
 34 36  1  0  0  0  0
  9 11  1  0  0  0  0
 15 16  1  0  0  0  0
 23 27  1  0  0  0  0
 30 34  2  0  0  0  0
 32 35  1  0  0  0  0
M  END
>  <MolRegNo>
323913

>  <m>
=

>  <Value>
25.12

>  <Unit>
nM

>  <Type>
Ki

>  <pValue>
7.6

>  <Ligand Efficiency>
0.29

>  <Binding Efficiency>
15.88

>  <Surface Efficiency>
12.13

>  <Assay Index>
236851

>  <Assay Category>


>  <Assay Organism>
Homo sapiens

>  <Target ID>
19

>  <Target Name>
Estrogen receptor alpha

>  <Target Organism>
Homo sapiens

>  <Target Description>
Target is a single protein chain

>  <Sequence Accession>
P03372

>  <Reference>
J Med Chem 48 (6), 2243-2247 (2005)

>  <Pubmed ID>
15771467

>  <DOI>
10.1021/jm040154f

$$$$
324234
Actelion Java MolfileCreator 1.0

 35 39  0  0  0  0  0  0  0  0999 V2000
    0.0000   -0.0000   -0.0000 O   0  0  0  0  0  0  0  0  0  0  0  0
   -0.0120   -1.4941   -0.0000 C   0  0  0  0  0  0  0  0  0  0  0  0
   -1.3626   -2.2351   -0.0000 O   0  0  0  0  0  0  0  0  0  0  0  0
    1.2789   -2.2351   -0.0000 C   0  0  0  0  0  0  0  0  0  0  0  0
    2.5698   -1.4702   -0.0000 C   0  0  0  0  0  0  0  0  0  0  0  0
    3.8607   -2.2112   -0.0000 C   0  0  0  0  0  0  0  0  0  0  0  0
    5.1515   -1.4223   -0.0000 C   0  0  0  0  0  0  0  0  0  0  0  0
    3.8487   -3.7053   -0.0000 C   0  0  0  0  0  0  0  0  0  0  0  0
    6.4424   -2.1754   -0.0000 C   0  0  0  0  0  0  0  0  0  0  0  0
    5.1396   -4.4463   -0.0000 C   0  0  0  0  0  0  0  0  0  0  0  0
    6.4304   -3.6694   -0.0000 C   0  0  0  0  0  0  0  0  0  0  0  0
    7.7333   -4.4105   -0.0000 O   0  0  0  0  0  0  0  0  0  0  0  0
    7.7213   -5.9045   -0.0000 C   0  0  0  0  0  0  0  0  0  0  0  0
    9.0122   -6.6336   -0.0000 C   0  0  0  0  0  0  0  0  0  0  0  0
    6.4185   -6.6456   -0.0000 C   0  0  0  0  0  0  0  0  0  0  0  0
    9.0122   -8.1277   -0.0000 C   0  0  0  0  0  0  0  0  0  0  0  0
   10.3150   -5.8687   -0.0000 C   0  0  0  0  0  0  0  0  0  0  0  0
    6.4065   -8.1516   -0.0000 C   0  0  0  0  0  0  0  0  0  0  0  0
    5.1037   -5.8806   -0.0000 C   0  0  0  0  0  0  0  0  0  0  0  0
    7.6855   -8.8688   -0.0000 N   0  0  0  0  0  0  0  0  0  0  0  0
   10.3031   -8.8568   -0.0000 C   0  0  0  0  0  0  0  0  0  0  0  0
   11.5820   -6.6097   -0.0000 C   0  0  0  0  0  0  0  0  0  0  0  0
   10.3031   -4.3388   -0.0000 C   0  0  0  0  0  0  0  0  0  0  0  0
    5.0918   -8.8927   -0.0000 C   0  0  0  0  0  0  0  0  0  0  0  0
    3.7770   -6.6336   -0.0000 C   0  0  0  0  0  0  0  0  0  0  0  0
   11.5700   -8.0918   -0.0000 C   0  0  0  0  0  0  0  0  0  0  0  0
   10.2911  -10.3509   -0.0000 C   0  0  0  0  0  0  0  0  0  0  0  0
   12.8848   -5.8448   -0.0000 C   0  0  0  0  0  0  0  0  0  0  0  0
   11.5700   -3.5738   -0.0000 C   0  0  0  0  0  0  0  0  0  0  0  0
    3.7650   -8.1277   -0.0000 C   0  0  0  0  0  0  0  0  0  0  0  0
   12.8728   -8.8090   -0.0000 C   0  0  0  0  0  0  0  0  0  0  0  0
   11.5581  -11.0919   -0.0000 C   0  0  0  0  0  0  0  0  0  0  0  0
   12.8728   -4.3149   -0.0000 C   0  0  0  0  0  0  0  0  0  0  0  0
    2.4742   -8.8688   -0.0000 O   0  0  0  0  0  0  0  0  0  0  0  0
   12.8728  -10.3031   -0.0000 C   0  0  0  0  0  0  0  0  0  0  0  0
  1  2  2  0  0  0  0
  2  3  1  0  0  0  0
  2  4  1  0  0  0  0
  4  5  2  0  0  0  0
  5  6  1  0  0  0  0
  6  7  2  0  0  0  0
  6  8  1  0  0  0  0
  7  9  1  0  0  0  0
  8 10  2  0  0  0  0
  9 11  2  0  0  0  0
 11 12  1  0  0  0  0
 12 13  1  0  0  0  0
 13 14  2  0  0  0  0
 13 15  1  0  0  0  0
 14 16  1  0  0  0  0
 14 17  1  0  0  0  0
 15 18  1  0  0  0  0
 15 19  2  0  0  0  0
 16 20  2  0  0  0  0
 16 21  1  0  0  0  0
 17 22  2  0  0  0  0
 17 23  1  0  0  0  0
 18 24  2  0  0  0  0
 19 25  1  0  0  0  0
 21 26  2  0  0  0  0
 21 27  1  0  0  0  0
 22 28  1  0  0  0  0
 23 29  2  0  0  0  0
 24 30  1  0  0  0  0
 26 31  1  0  0  0  0
 27 32  2  0  0  0  0
 28 33  2  0  0  0  0
 30 34  1  0  0  0  0
 31 35  2  0  0  0  0
 10 11  1  0  0  0  0
 18 20  1  0  0  0  0
 25 30  2  0  0  0  0
 29 33  1  0  0  0  0
 32 35  1  0  0  0  0
M  END
>  <MolRegNo>
324234

>  <m>
=

>  <Value>
3162.3

>  <Unit>
nM

>  <Type>
Ki

>  <pValue>
5.5

>  <Ligand Efficiency>
0.21

>  <Binding Efficiency>
11.97

>  <Surface Efficiency>
6.91

>  <Assay Index>
236851

>  <Assay Category>


>  <Assay Organism>
Homo sapiens

>  <Target ID>
19

>  <Target Name>
Estrogen receptor alpha

>  <Target Organism>
Homo sapiens

>  <Target Description>
Target is a single protein chain

>  <Sequence Accession>
P03372

>  <Reference>
J Med Chem 48 (6), 2243-2247 (2005)

>  <Pubmed ID>
15771467

>  <DOI>
10.1021/jm040154f

$$$$
324022
Actelion Java MolfileCreator 1.0

 35 38  0  0  0  0  0  0  0  0999 V2000
    0.0000   -0.0000   -0.0000 F   0  0  0  0  0  0  0  0  0  0  0  0
   -1.2117   -0.9741   -0.0000 C   0  0  0  0  0  0  0  0  0  0  0  0
   -2.4233    0.0238   -0.0000 F   0  0  0  0  0  0  0  0  0  0  0  0
   -1.2235    0.3920   -0.0000 F   0  0  0  0  0  0  0  0  0  0  0  0
   -1.2117   -2.4590   -0.0000 C   0  0  0  0  0  0  0  0  0  0  0  0
   -2.5184   -3.1955   -0.0000 C   0  0  0  0  0  0  0  0  0  0  0  0
    0.0713   -3.1955   -0.0000 C   0  0  0  0  0  0  0  0  0  0  0  0
   -2.5302   -4.6922   -0.0000 C   0  0  0  0  0  0  0  0  0  0  0  0
    0.0594   -4.6922   -0.0000 C   0  0  0  0  0  0  0  0  0  0  0  0
   -3.8369   -5.4287   -0.0000 C   0  0  0  0  0  0  0  0  0  0  0  0
   -1.2473   -5.4287   -0.0000 C   0  0  0  0  0  0  0  0  0  0  0  0
   -5.1555   -4.6803   -0.0000 C   0  0  0  0  0  0  0  0  0  0  0  0
   -3.8369   -6.9136   -0.0000 C   0  0  0  0  0  0  0  0  0  0  0  0
   -5.1674   -3.1717   -0.0000 O   0  0  0  0  0  0  0  0  0  0  0  0
   -6.4384   -5.4168   -0.0000 C   0  0  0  0  0  0  0  0  0  0  0  0
   -5.1436   -7.6501   -0.0000 N   0  0  0  0  0  0  0  0  0  0  0  0
   -2.5540   -7.6382   -0.0000 C   0  0  0  0  0  0  0  0  0  0  0  0
   -6.4741   -2.4114   -0.0000 C   0  0  0  0  0  0  0  0  0  0  0  0
   -6.4503   -6.9136   -0.0000 C   0  0  0  0  0  0  0  0  0  0  0  0
   -7.7570   -4.6685   -0.0000 C   0  0  0  0  0  0  0  0  0  0  0  0
   -2.5540   -9.1231   -0.0000 C   0  0  0  0  0  0  0  0  0  0  0  0
   -7.7927   -3.1479   -0.0000 C   0  0  0  0  0  0  0  0  0  0  0  0
   -6.4860   -0.9028   -0.0000 C   0  0  0  0  0  0  0  0  0  0  0  0
   -7.7689   -7.6501   -0.0000 C   0  0  0  0  0  0  0  0  0  0  0  0
   -9.0637   -5.4050   -0.0000 C   0  0  0  0  0  0  0  0  0  0  0  0
   -9.0993   -2.3877   -0.0000 C   0  0  0  0  0  0  0  0  0  0  0  0
   -7.8045   -0.1425   -0.0000 C   0  0  0  0  0  0  0  0  0  0  0  0
   -9.0756   -6.8898   -0.0000 C   0  0  0  0  0  0  0  0  0  0  0  0
   -9.1112   -0.8790   -0.0000 C   0  0  0  0  0  0  0  0  0  0  0  0
  -10.3823   -7.6263   -0.0000 O   0  0  0  0  0  0  0  0  0  0  0  0
  -10.4179   -0.1188   -0.0000 C   0  0  0  0  0  0  0  0  0  0  0  0
  -11.7246   -0.8553   -0.0000 C   0  0  0  0  0  0  0  0  0  0  0  0
  -13.0313   -0.0950   -0.0000 C   0  0  0  0  0  0  0  0  0  0  0  0
  -13.0432    1.4136   -0.0000 O   0  0  0  0  0  0  0  0  0  0  0  0
  -14.3380   -0.8315   -0.0000 O   0  0  0  0  0  0  0  0  0  0  0  0
  1  2  1  0  0  0  0
  2  3  1  0  0  0  0
  2  4  1  0  0  0  0
  2  5  1  0  0  0  0
  5  6  2  0  0  0  0
  5  7  1  0  0  0  0
  6  8  1  0  0  0  0
  7  9  2  0  0  0  0
  8 10  1  0  0  0  0
  8 11  2  0  0  0  0
 10 12  2  0  0  0  0
 10 13  1  0  0  0  0
 12 14  1  0  0  0  0
 12 15  1  0  0  0  0
 13 16  2  0  0  0  0
 13 17  1  0  0  0  0
 14 18  1  0  0  0  0
 15 19  1  0  0  0  0
 15 20  2  0  0  0  0
 17 21  1  0  0  0  0
 18 22  2  0  0  0  0
 18 23  1  0  0  0  0
 19 24  2  0  0  0  0
 20 25  1  0  0  0  0
 22 26  1  0  0  0  0
 23 27  2  0  0  0  0
 24 28  1  0  0  0  0
 26 29  2  0  0  0  0
 28 30  1  0  0  0  0
 29 31  1  0  0  0  0
 31 32  2  0  0  0  0
 32 33  1  0  0  0  0
 33 34  2  0  0  0  0
 33 35  1  0  0  0  0
  9 11  1  0  0  0  0
 16 19  1  0  0  0  0
 25 28  2  0  0  0  0
 27 29  1  0  0  0  0
M  END
>  <MolRegNo>
324022

>  <m>
=

>  <Value>
100

>  <Unit>
nM

>  <Type>
Ki

>  <pValue>
7

>  <Ligand Efficiency>
0.27

>  <Binding Efficiency>
14.6

>  <Surface Efficiency>
8.79

>  <Assay Index>
236851

>  <Assay Category>


>  <Assay Organism>
Homo sapiens

>  <Target ID>
19

>  <Target Name>
Estrogen receptor alpha

>  <Target Organism>
Homo sapiens

>  <Target Description>
Target is a single protein chain

>  <Sequence Accession>
P03372

>  <Reference>
J Med Chem 48 (6), 2243-2247 (2005)

>  <Pubmed ID>
15771467

>  <DOI>
10.1021/jm040154f

$$$$
323811
Actelion Java MolfileCreator 1.0

 31 34  0  0  0  0  0  0  0  0999 V2000
    0.0000   -0.0000   -0.0000 O   0  0  0  0  0  0  0  0  0  0  0  0
    1.2982   -0.7332   -0.0000 C   0  0  0  0  0  0  0  0  0  0  0  0
    2.5844    0.0240   -0.0000 O   0  0  0  0  0  0  0  0  0  0  0  0
    1.2982   -2.2238   -0.0000 C   0  0  0  0  0  0  0  0  0  0  0  0
    2.5844   -2.9450   -0.0000 C   0  0  0  0  0  0  0  0  0  0  0  0
    2.5723   -4.4355   -0.0000 C   0  0  0  0  0  0  0  0  0  0  0  0
    3.8705   -5.1807   -0.0000 C   0  0  0  0  0  0  0  0  0  0  0  0
    1.2621   -5.1928   -0.0000 C   0  0  0  0  0  0  0  0  0  0  0  0
    3.8585   -6.6953   -0.0000 C   0  0  0  0  0  0  0  0  0  0  0  0
    1.2501   -6.6833   -0.0000 C   0  0  0  0  0  0  0  0  0  0  0  0
    5.1567   -7.4406   -0.0000 O   0  0  0  0  0  0  0  0  0  0  0  0
    2.5363   -7.4406   -0.0000 C   0  0  0  0  0  0  0  0  0  0  0  0
    5.1447   -8.9311   -0.0000 C   0  0  0  0  0  0  0  0  0  0  0  0
    6.4429   -9.6523   -0.0000 C   0  0  0  0  0  0  0  0  0  0  0  0
    3.8465   -9.6763   -0.0000 C   0  0  0  0  0  0  0  0  0  0  0  0
    7.7291   -8.8830   -0.0000 C   0  0  0  0  0  0  0  0  0  0  0  0
    6.4429  -11.1669   -0.0000 C   0  0  0  0  0  0  0  0  0  0  0  0
    3.8345  -11.1669   -0.0000 C   0  0  0  0  0  0  0  0  0  0  0  0
    2.5243   -8.9070   -0.0000 C   0  0  0  0  0  0  0  0  0  0  0  0
    9.0152   -9.6283   -0.0000 C   0  0  0  0  0  0  0  0  0  0  0  0
    7.7170   -7.3684   -0.0000 C   0  0  0  0  0  0  0  0  0  0  0  0
    5.1206  -11.9121   -0.0000 N   0  0  0  0  0  0  0  0  0  0  0  0
    7.7291  -11.8881   -0.0000 C   0  0  0  0  0  0  0  0  0  0  0  0
    2.5122  -11.9121   -0.0000 C   0  0  0  0  0  0  0  0  0  0  0  0
    1.2141   -9.6523   -0.0000 C   0  0  0  0  0  0  0  0  0  0  0  0
   10.3134   -8.8590   -0.0000 C   0  0  0  0  0  0  0  0  0  0  0  0
    9.0032   -6.5991   -0.0000 C   0  0  0  0  0  0  0  0  0  0  0  0
    7.7291  -13.3786   -0.0000 C   0  0  0  0  0  0  0  0  0  0  0  0
    1.2020  -11.1428   -0.0000 C   0  0  0  0  0  0  0  0  0  0  0  0
   10.3014   -7.3444   -0.0000 C   0  0  0  0  0  0  0  0  0  0  0  0
   -0.1082  -11.8881   -0.0000 O   0  0  0  0  0  0  0  0  0  0  0  0
  1  2  2  0  0  0  0
  2  3  1  0  0  0  0
  2  4  1  0  0  0  0
  4  5  2  0  0  0  0
  5  6  1  0  0  0  0
  6  7  2  0  0  0  0
  6  8  1  0  0  0  0
  7  9  1  0  0  0  0
  8 10  2  0  0  0  0
  9 11  1  0  0  0  0
  9 12  2  0  0  0  0
 11 13  1  0  0  0  0
 13 14  2  0  0  0  0
 13 15  1  0  0  0  0
 14 16  1  0  0  0  0
 14 17  1  0  0  0  0
 15 18  1  0  0  0  0
 15 19  2  0  0  0  0
 16 20  2  0  0  0  0
 16 21  1  0  0  0  0
 17 22  2  0  0  0  0
 17 23  1  0  0  0  0
 18 24  2  0  0  0  0
 19 25  1  0  0  0  0
 20 26  1  0  0  0  0
 21 27  2  0  0  0  0
 23 28  1  0  0  0  0
 24 29  1  0  0  0  0
 26 30  2  0  0  0  0
 29 31  1  0  0  0  0
 10 12  1  0  0  0  0
 18 22  1  0  0  0  0
 25 29  2  0  0  0  0
 27 30  1  0  0  0  0
M  END
>  <MolRegNo>
323811

>  <m>
=

>  <Value>
1584.9

>  <Unit>
nM

>  <Type>
Ki

>  <pValue>
5.8

>  <Ligand Efficiency>
0.26

>  <Binding Efficiency>
14.1

>  <Surface Efficiency>
7.28

>  <Assay Index>
236851

>  <Assay Category>


>  <Assay Organism>
Homo sapiens

>  <Target ID>
19

>  <Target Name>
Estrogen receptor alpha

>  <Target Organism>
Homo sapiens

>  <Target Description>
Target is a single protein chain

>  <Sequence Accession>
P03372

>  <Reference>
J Med Chem 48 (6), 2243-2247 (2005)

>  <Pubmed ID>
15771467

>  <DOI>
10.1021/jm040154f

$$$$
324129
Actelion Java MolfileCreator 1.0

 32 35  0  0  0  0  0  0  0  0999 V2000
    0.0000   -0.0000   -0.0000 O   0  0  0  0  0  0  0  0  0  0  0  0
    0.0000   -1.4863   -0.0000 C   0  0  0  0  0  0  0  0  0  0  0  0
   -1.3199    0.7610   -0.0000 C   0  0  0  0  0  0  0  0  0  0  0  0
    1.2842   -2.2117   -0.0000 C   0  0  0  0  0  0  0  0  0  0  0  0
   -1.3080   -2.2236   -0.0000 C   0  0  0  0  0  0  0  0  0  0  0  0
   -1.3318    2.2830   -0.0000 C   0  0  0  0  0  0  0  0  0  0  0  0
   -2.6279    0.0238   -0.0000 C   0  0  0  0  0  0  0  0  0  0  0  0
    2.5565   -1.4507   -0.0000 C   0  0  0  0  0  0  0  0  0  0  0  0
    1.2723   -3.7099   -0.0000 C   0  0  0  0  0  0  0  0  0  0  0  0
   -1.3199   -3.7099   -0.0000 C   0  0  0  0  0  0  0  0  0  0  0  0
   -2.6160   -1.4745   -0.0000 C   0  0  0  0  0  0  0  0  0  0  0  0
   -2.6397    3.0440   -0.0000 C   0  0  0  0  0  0  0  0  0  0  0  0
   -3.9358    0.7848   -0.0000 C   0  0  0  0  0  0  0  0  0  0  0  0
    3.8407   -2.1879   -0.0000 C   0  0  0  0  0  0  0  0  0  0  0  0
    2.5446    0.0595   -0.0000 C   0  0  0  0  0  0  0  0  0  0  0  0
   -0.0357   -4.4471   -0.0000 N   0  0  0  0  0  0  0  0  0  0  0  0
    2.5684   -4.4352   -0.0000 C   0  0  0  0  0  0  0  0  0  0  0  0
   -2.6279   -4.4471   -0.0000 C   0  0  0  0  0  0  0  0  0  0  0  0
   -3.9239   -2.2117   -0.0000 C   0  0  0  0  0  0  0  0  0  0  0  0
   -3.9477    2.2949   -0.0000 C   0  0  0  0  0  0  0  0  0  0  0  0
    5.1368   -1.4269   -0.0000 C   0  0  0  0  0  0  0  0  0  0  0  0
    3.8288    0.8205   -0.0000 C   0  0  0  0  0  0  0  0  0  0  0  0
    2.5565   -5.9097   -0.0000 C   0  0  0  0  0  0  0  0  0  0  0  0
   -3.9358   -3.6861   -0.0000 C   0  0  0  0  0  0  0  0  0  0  0  0
   -5.2557    3.0559   -0.0000 O   0  0  0  0  0  0  0  0  0  0  0  0
    5.1249    0.0832   -0.0000 C   0  0  0  0  0  0  0  0  0  0  0  0
   -5.2557   -4.4234   -0.0000 O   0  0  0  0  0  0  0  0  0  0  0  0
   -6.5637    2.3187   -0.0000 C   0  0  0  0  0  0  0  0  0  0  0  0
   -7.8717    3.0797   -0.0000 C   0  0  0  0  0  0  0  0  0  0  0  0
   -9.1915    2.3425   -0.0000 N   0  0  0  0  0  0  0  0  0  0  0  0
  -10.4995    3.1035   -0.0000 C   0  0  0  0  0  0  0  0  0  0  0  0
   -9.2034    0.8561   -0.0000 C   0  0  0  0  0  0  0  0  0  0  0  0
  1  2  1  0  0  0  0
  1  3  1  0  0  0  0
  2  4  2  0  0  0  0
  2  5  1  0  0  0  0
  3  6  2  0  0  0  0
  3  7  1  0  0  0  0
  4  8  1  0  0  0  0
  4  9  1  0  0  0  0
  5 10  1  0  0  0  0
  5 11  2  0  0  0  0
  6 12  1  0  0  0  0
  7 13  2  0  0  0  0
  8 14  2  0  0  0  0
  8 15  1  0  0  0  0
  9 16  2  0  0  0  0
  9 17  1  0  0  0  0
 10 18  2  0  0  0  0
 11 19  1  0  0  0  0
 12 20  2  0  0  0  0
 14 21  1  0  0  0  0
 15 22  2  0  0  0  0
 17 23  1  0  0  0  0
 18 24  1  0  0  0  0
 20 25  1  0  0  0  0
 21 26  2  0  0  0  0
 24 27  1  0  0  0  0
 25 28  1  0  0  0  0
 28 29  1  0  0  0  0
 29 30  1  0  0  0  0
 30 31  1  0  0  0  0
 30 32  1  0  0  0  0
 10 16  1  0  0  0  0
 13 20  1  0  0  0  0
 19 24  2  0  0  0  0
 22 26  1  0  0  0  0
M  END
>  <MolRegNo>
324129

>  <m>
=

>  <Value>
7.943

>  <Unit>
nM

>  <Type>
Ki

>  <pValue>
8.1

>  <Ligand Efficiency>
0.35

>  <Binding Efficiency>
18.9

>  <Surface Efficiency>
14.78

>  <Assay Index>
236851

>  <Assay Category>


>  <Assay Organism>
Homo sapiens

>  <Target ID>
19

>  <Target Name>
Estrogen receptor alpha

>  <Target Organism>
Homo sapiens

>  <Target Description>
Target is a single protein chain

>  <Sequence Accession>
P03372

>  <Reference>
J Med Chem 48 (6), 2243-2247 (2005)

>  <Pubmed ID>
15771467

>  <DOI>
10.1021/jm040154f

$$$$
324474
Actelion Java MolfileCreator 1.0

 28 30  0  0  0  0  0  0  0  0999 V2000
    0.0000   -0.0000   -0.0000 O   0  0  0  0  0  0  0  0  0  0  0  0
    1.4376   -0.3795   -0.0000 C   0  0  0  0  0  0  0  0  0  0  0  0
    2.4956    0.7015   -0.0000 O   0  0  0  0  0  0  0  0  0  0  0  0
    1.8401   -1.8056   -0.0000 C   0  0  0  0  0  0  0  0  0  0  0  0
    0.7590   -2.8637   -0.0000 C   0  0  0  0  0  0  0  0  0  0  0  0
    1.1386   -4.3127   -0.0000 C   0  0  0  0  0  0  0  0  0  0  0  0
    0.0690   -5.3708   -0.0000 C   0  0  0  0  0  0  0  0  0  0  0  0
    2.5876   -4.6808   -0.0000 C   0  0  0  0  0  0  0  0  0  0  0  0
    0.4485   -6.7969   -0.0000 C   0  0  0  0  0  0  0  0  0  0  0  0
    2.9672   -6.1183   -0.0000 C   0  0  0  0  0  0  0  0  0  0  0  0
    1.8746   -7.1764   -0.0000 C   0  0  0  0  0  0  0  0  0  0  0  0
    2.2656   -8.6255   -0.0000 C   0  0  0  0  0  0  0  0  0  0  0  0
    1.1846   -9.6605   -0.0000 C   0  0  0  0  0  0  0  0  0  0  0  0
    3.7032   -9.0050   -0.0000 C   0  0  0  0  0  0  0  0  0  0  0  0
   -0.2875   -9.2580   -0.0000 C   0  0  0  0  0  0  0  0  0  0  0  0
    1.5641  -11.1096   -0.0000 C   0  0  0  0  0  0  0  0  0  0  0  0
    4.7613   -7.9124   -0.0000 C   0  0  0  0  0  0  0  0  0  0  0  0
    4.0827  -10.4311   -0.0000 C   0  0  0  0  0  0  0  0  0  0  0  0
   -1.3571  -10.3161   -0.0000 C   0  0  0  0  0  0  0  0  0  0  0  0
    0.5060  -12.1447   -0.0000 C   0  0  0  0  0  0  0  0  0  0  0  0
    4.3472   -6.4519   -0.0000 C   0  0  0  0  0  0  0  0  0  0  0  0
    6.1988   -8.2920   -0.0000 C   0  0  0  0  0  0  0  0  0  0  0  0
    3.0017  -11.4891   -0.0000 C   0  0  0  0  0  0  0  0  0  0  0  0
   -0.9776  -11.7422   -0.0000 C   0  0  0  0  0  0  0  0  0  0  0  0
    5.4053   -5.3938   -0.0000 C   0  0  0  0  0  0  0  0  0  0  0  0
    7.2569   -7.2109   -0.0000 C   0  0  0  0  0  0  0  0  0  0  0  0
   -2.0586  -12.8002   -0.0000 O   0  0  0  0  0  0  0  0  0  0  0  0
    6.8544   -5.7503   -0.0000 C   0  0  0  0  0  0  0  0  0  0  0  0
  1  2  2  0  0  0  0
  2  3  1  0  0  0  0
  2  4  1  0  0  0  0
  4  5  2  0  0  0  0
  5  6  1  0  0  0  0
  6  7  2  0  0  0  0
  6  8  1  0  0  0  0
  7  9  1  0  0  0  0
  8 10  2  0  0  0  0
  9 11  2  0  0  0  0
 11 12  1  0  0  0  0
 12 13  1  0  0  0  0
 12 14  2  0  0  0  0
 13 15  2  0  0  0  0
 13 16  1  0  0  0  0
 14 17  1  0  0  0  0
 14 18  1  0  0  0  0
 15 19  1  0  0  0  0
 16 20  2  0  0  0  0
 17 21  2  0  0  0  0
 17 22  1  0  0  0  0
 18 23  1  0  0  0  0
 19 24  2  0  0  0  0
 21 25  1  0  0  0  0
 22 26  2  0  0  0  0
 24 27  1  0  0  0  0
 25 28  2  0  0  0  0
 10 11  1  0  0  0  0
 20 24  1  0  0  0  0
 26 28  1  0  0  0  0
M  END
>  <MolRegNo>
324474

>  <m>
=

>  <Value>
2.512

>  <Unit>
nM

>  <Type>
Ki

>  <pValue>
8.6

>  <Ligand Efficiency>
0.42

>  <Binding Efficiency>
23.21

>  <Surface Efficiency>
14.95

>  <Assay Index>
236851

>  <Assay Category>


>  <Assay Organism>
Homo sapiens

>  <Target ID>
19

>  <Target Name>
Estrogen receptor alpha

>  <Target Organism>
Homo sapiens

>  <Target Description>
Target is a single protein chain

>  <Sequence Accession>
P03372

>  <Reference>
J Med Chem 48 (6), 2243-2247 (2005)

>  <Pubmed ID>
15771467

>  <DOI>
10.1021/jm040154f

$$$$
328945
Actelion Java MolfileCreator 1.0

 32 36  0  0  0  0  0  0  0  0999 V2000
    0.0000   -0.0000   -0.0000 O   0  0  0  0  0  0  0  0  0  0  0  0
    1.4886   -0.1429   -0.0000 C   0  0  0  0  0  0  0  0  0  0  0  0
   -0.8932   -1.2028   -0.0000 C   0  0  0  0  0  0  0  0  0  0  0  0
    2.0959   -1.5005   -0.0000 C   0  0  0  0  0  0  0  0  0  0  0  0
    2.3460    1.0956   -0.0000 C   0  0  0  0  0  0  0  0  0  0  0  0
   -2.4056   -1.0361   -0.0000 C   0  0  0  0  0  0  0  0  0  0  0  0
    3.5845   -1.6434   -0.0000 C   0  0  0  0  0  0  0  0  0  0  0  0
    3.8346    0.9646   -0.0000 C   0  0  0  0  0  0  0  0  0  0  0  0
   -3.2987   -2.2389   -0.0000 N   0  0  0  0  0  0  0  0  0  0  0  0
    4.4539   -0.4168   -0.0000 C   0  0  0  0  0  0  0  0  0  0  0  0
   -4.8112   -2.0721   -0.0000 C   0  0  0  0  0  0  0  0  0  0  0  0
   -2.6795   -3.5965   -0.0000 C   0  0  0  0  0  0  0  0  0  0  0  0
    5.9425   -0.5597   -0.0000 C   0  0  0  0  0  0  0  0  0  0  0  0
   -5.7043   -3.2749   -0.0000 C   0  0  0  0  0  0  0  0  0  0  0  0
   -3.5726   -4.8112   -0.0000 C   0  0  0  0  0  0  0  0  0  0  0  0
    7.0500    0.4644   -0.0000 C   0  0  0  0  0  0  0  0  0  0  0  0
    6.5379   -1.8935   -0.0000 C   0  0  0  0  0  0  0  0  0  0  0  0
   -5.0851   -4.6563   -0.0000 C   0  0  0  0  0  0  0  0  0  0  0  0
    8.3362   -0.2739   -0.0000 C   0  0  0  0  0  0  0  0  0  0  0  0
    7.0381    1.9769   -0.0000 C   0  0  0  0  0  0  0  0  0  0  0  0
    5.7043   -3.1439   -0.0000 C   0  0  0  0  0  0  0  0  0  0  0  0
    8.0027   -1.7387   -0.0000 C   0  0  0  0  0  0  0  0  0  0  0  0
    9.6223    0.4883   -0.0000 C   0  0  0  0  0  0  0  0  0  0  0  0
    8.3242    2.7390   -0.0000 C   0  0  0  0  0  0  0  0  0  0  0  0
    6.3712   -4.4658   -0.0000 C   0  0  0  0  0  0  0  0  0  0  0  0
    4.1800   -3.0367   -0.0000 C   0  0  0  0  0  0  0  0  0  0  0  0
    9.6104    2.0007   -0.0000 C   0  0  0  0  0  0  0  0  0  0  0  0
    5.5257   -5.7043   -0.0000 C   0  0  0  0  0  0  0  0  0  0  0  0
    3.3464   -4.2753   -0.0000 C   0  0  0  0  0  0  0  0  0  0  0  0
   10.8965    2.7747   -0.0000 O   0  0  0  0  0  0  0  0  0  0  0  0
    4.0133   -5.5971   -0.0000 C   0  0  0  0  0  0  0  0  0  0  0  0
    3.1677   -6.8476   -0.0000 O   0  0  0  0  0  0  0  0  0  0  0  0
  1  2  1  0  0  0  0
  1  3  1  0  0  0  0
  2  4  2  0  0  0  0
  2  5  1  0  0  0  0
  3  6  1  0  0  0  0
  4  7  1  0  0  0  0
  5  8  2  0  0  0  0
  6  9  1  0  0  0  0
  7 10  2  0  0  0  0
  9 11  1  0  0  0  0
  9 12  1  0  0  0  0
 10 13  1  0  0  0  0
 11 14  1  0  0  0  0
 12 15  1  0  0  0  0
 13 16  1  0  0  0  0
 13 17  2  0  0  0  0
 14 18  1  0  0  0  0
 16 19  2  0  0  0  0
 16 20  1  0  0  0  0
 17 21  1  0  0  0  0
 17 22  1  0  0  0  0
 19 23  1  0  0  0  0
 20 24  2  0  0  0  0
 21 25  2  0  0  0  0
 21 26  1  0  0  0  0
 23 27  2  0  0  0  0
 25 28  1  0  0  0  0
 26 29  2  0  0  0  0
 27 30  1  0  0  0  0
 28 31  2  0  0  0  0
 31 32  1  0  0  0  0
  8 10  1  0  0  0  0
 15 18  1  0  0  0  0
 19 22  1  0  0  0  0
 24 27  1  0  0  0  0
 29 31  1  0  0  0  0
M  END
>  <MolRegNo>
328945

>  <m>
=

>  <Value>
1.7

>  <Unit>
nM

>  <Type>
Ki

>  <pValue>
8.77

>  <Ligand Efficiency>
0

>  <Binding Efficiency>
0

>  <Surface Efficiency>
0

>  <Assay Index>
251352

>  <Assay Category>


>  <Assay Organism>
Homo sapiens

>  <Target ID>
19

>  <Target Name>
Estrogen receptor alpha

>  <Target Organism>
Homo sapiens

>  <Target Description>
Target is a single protein chain

>  <Sequence Accession>
P03372

>  <Reference>
J Med Chem 48 (19), 5989-6003 (2005)

>  <Pubmed ID>
16162002

>  <DOI>
10.1021/jm050226i

$$$$
328974
Actelion Java MolfileCreator 1.0

 26 29  0  0  0  0  0  0  0  0999 V2000
    0.0000   -0.0000   -0.0000 O   0  0  0  0  0  0  0  0  0  0  0  0
    0.7513   -1.2999   -0.0000 C   0  0  0  0  0  0  0  0  0  0  0  0
   -0.1431   -2.5164   -0.0000 N   0  0  0  0  0  0  0  0  0  0  0  0
    2.2421   -1.4311   -0.0000 C   0  0  0  0  0  0  0  0  0  0  0  0
    2.8503   -2.8026   -0.0000 C   0  0  0  0  0  0  0  0  0  0  0  0
    3.1007   -0.1908   -0.0000 C   0  0  0  0  0  0  0  0  0  0  0  0
    4.3410   -2.9338   -0.0000 C   0  0  0  0  0  0  0  0  0  0  0  0
    4.5915   -0.3339   -0.0000 C   0  0  0  0  0  0  0  0  0  0  0  0
    5.2116   -1.7054   -0.0000 C   0  0  0  0  0  0  0  0  0  0  0  0
    6.7024   -1.8366   -0.0000 C   0  0  0  0  0  0  0  0  0  0  0  0
    7.8115   -0.8229   -0.0000 C   0  0  0  0  0  0  0  0  0  0  0  0
    7.2987   -3.1842   -0.0000 C   0  0  0  0  0  0  0  0  0  0  0  0
    9.0995   -1.5623   -0.0000 C   0  0  0  0  0  0  0  0  0  0  0  0
    7.7995    0.6917   -0.0000 C   0  0  0  0  0  0  0  0  0  0  0  0
    6.4638   -4.4245   -0.0000 C   0  0  0  0  0  0  0  0  0  0  0  0
    8.7655   -3.0173   -0.0000 C   0  0  0  0  0  0  0  0  0  0  0  0
   10.3875   -0.7990   -0.0000 C   0  0  0  0  0  0  0  0  0  0  0  0
    9.0875    1.4669   -0.0000 C   0  0  0  0  0  0  0  0  0  0  0  0
    7.1317   -5.7483   -0.0000 C   0  0  0  0  0  0  0  0  0  0  0  0
    4.9373   -4.3172   -0.0000 C   0  0  0  0  0  0  0  0  0  0  0  0
   10.3755    0.7275   -0.0000 C   0  0  0  0  0  0  0  0  0  0  0  0
    6.2850   -7.0005   -0.0000 C   0  0  0  0  0  0  0  0  0  0  0  0
    4.1025   -5.5694   -0.0000 C   0  0  0  0  0  0  0  0  0  0  0  0
   11.6635    1.4907   -0.0000 O   0  0  0  0  0  0  0  0  0  0  0  0
    4.7704   -6.8932   -0.0000 C   0  0  0  0  0  0  0  0  0  0  0  0
    3.9236   -8.1335   -0.0000 O   0  0  0  0  0  0  0  0  0  0  0  0
  1  2  2  0  0  0  0
  2  3  1  0  0  0  0
  2  4  1  0  0  0  0
  4  5  2  0  0  0  0
  4  6  1  0  0  0  0
  5  7  1  0  0  0  0
  6  8  2  0  0  0  0
  7  9  2  0  0  0  0
  9 10  1  0  0  0  0
 10 11  1  0  0  0  0
 10 12  2  0  0  0  0
 11 13  2  0  0  0  0
 11 14  1  0  0  0  0
 12 15  1  0  0  0  0
 12 16  1  0  0  0  0
 13 17  1  0  0  0  0
 14 18  2  0  0  0  0
 15 19  2  0  0  0  0
 15 20  1  0  0  0  0
 17 21  2  0  0  0  0
 19 22  1  0  0  0  0
 20 23  2  0  0  0  0
 21 24  1  0  0  0  0
 22 25  2  0  0  0  0
 25 26  1  0  0  0  0
  8  9  1  0  0  0  0
 13 16  1  0  0  0  0
 18 21  1  0  0  0  0
 23 25  1  0  0  0  0
M  END
>  <MolRegNo>
328974

>  <m>
=

>  <Value>
4.2

>  <Unit>
nM

>  <Type>
Ki

>  <pValue>
8.38

>  <Ligand Efficiency>
0

>  <Binding Efficiency>
0

>  <Surface Efficiency>
0

>  <Assay Index>
251352

>  <Assay Category>


>  <Assay Organism>
Homo sapiens

>  <Target ID>
19

>  <Target Name>
Estrogen receptor alpha

>  <Target Organism>
Homo sapiens

>  <Target Description>
Target is a single protein chain

>  <Sequence Accession>
P03372

>  <Reference>
J Med Chem 48 (19), 5989-6003 (2005)

>  <Pubmed ID>
16162002

>  <DOI>
10.1021/jm050226i

$$$$
328975
Actelion Java MolfileCreator 1.0

 26 29  0  0  0  0  0  0  0  0999 V2000
    0.0000   -0.0000   -0.0000 O   0  0  0  0  0  0  0  0  0  0  0  0
    0.7515   -1.3002   -0.0000 C   0  0  0  0  0  0  0  0  0  0  0  0
    2.2426   -1.4314   -0.0000 C   0  0  0  0  0  0  0  0  0  0  0  0
   -0.0835   -2.5408   -0.0000 C   0  0  0  0  0  0  0  0  0  0  0  0
    2.8510   -2.8032   -0.0000 C   0  0  0  0  0  0  0  0  0  0  0  0
    3.1015   -0.1909   -0.0000 C   0  0  0  0  0  0  0  0  0  0  0  0
    4.3420   -2.9345   -0.0000 C   0  0  0  0  0  0  0  0  0  0  0  0
    4.5925   -0.3340   -0.0000 C   0  0  0  0  0  0  0  0  0  0  0  0
    5.1890   -1.7058   -0.0000 C   0  0  0  0  0  0  0  0  0  0  0  0
    6.6920   -1.8370   -0.0000 C   0  0  0  0  0  0  0  0  0  0  0  0
    7.8014   -0.8231   -0.0000 C   0  0  0  0  0  0  0  0  0  0  0  0
    7.2884   -3.1850   -0.0000 C   0  0  0  0  0  0  0  0  0  0  0  0
    9.0897   -1.5627   -0.0000 C   0  0  0  0  0  0  0  0  0  0  0  0
    7.7894    0.6919   -0.0000 C   0  0  0  0  0  0  0  0  0  0  0  0
    6.4415   -4.4255   -0.0000 C   0  0  0  0  0  0  0  0  0  0  0  0
    8.7557   -3.0180   -0.0000 C   0  0  0  0  0  0  0  0  0  0  0  0
   10.3780   -0.7992   -0.0000 C   0  0  0  0  0  0  0  0  0  0  0  0
    9.0777    1.4672   -0.0000 C   0  0  0  0  0  0  0  0  0  0  0  0
    7.1214   -5.7616   -0.0000 C   0  0  0  0  0  0  0  0  0  0  0  0
    4.9265   -4.3301   -0.0000 C   0  0  0  0  0  0  0  0  0  0  0  0
   10.3660    0.7276   -0.0000 C   0  0  0  0  0  0  0  0  0  0  0  0
    6.2745   -7.0141   -0.0000 C   0  0  0  0  0  0  0  0  0  0  0  0
    4.0915   -5.5826   -0.0000 C   0  0  0  0  0  0  0  0  0  0  0  0
   11.6543    1.5030   -0.0000 O   0  0  0  0  0  0  0  0  0  0  0  0
    4.7595   -6.9067   -0.0000 C   0  0  0  0  0  0  0  0  0  0  0  0
    3.9126   -8.1473   -0.0000 O   0  0  0  0  0  0  0  0  0  0  0  0
  1  2  2  0  0  0  0
  2  3  1  0  0  0  0
  2  4  1  0  0  0  0
  3  5  2  0  0  0  0
  3  6  1  0  0  0  0
  5  7  1  0  0  0  0
  6  8  2  0  0  0  0
  7  9  2  0  0  0  0
  9 10  1  0  0  0  0
 10 11  1  0  0  0  0
 10 12  2  0  0  0  0
 11 13  2  0  0  0  0
 11 14  1  0  0  0  0
 12 15  1  0  0  0  0
 12 16  1  0  0  0  0
 13 17  1  0  0  0  0
 14 18  2  0  0  0  0
 15 19  2  0  0  0  0
 15 20  1  0  0  0  0
 17 21  2  0  0  0  0
 19 22  1  0  0  0  0
 20 23  2  0  0  0  0
 21 24  1  0  0  0  0
 22 25  2  0  0  0  0
 25 26  1  0  0  0  0
  8  9  1  0  0  0  0
 13 16  1  0  0  0  0
 18 21  1  0  0  0  0
 23 25  1  0  0  0  0
M  END
>  <MolRegNo>
328975

>  <m>
=

>  <Value>
7.3

>  <Unit>
nM

>  <Type>
Ki

>  <pValue>
8.14

>  <Ligand Efficiency>
0

>  <Binding Efficiency>
0

>  <Surface Efficiency>
0

>  <Assay Index>
251352

>  <Assay Category>


>  <Assay Organism>
Homo sapiens

>  <Target ID>
19

>  <Target Name>
Estrogen receptor alpha

>  <Target Organism>
Homo sapiens

>  <Target Description>
Target is a single protein chain

>  <Sequence Accession>
P03372

>  <Reference>
J Med Chem 48 (19), 5989-6003 (2005)

>  <Pubmed ID>
16162002

>  <DOI>
10.1021/jm050226i

$$$$
549293
Actelion Java MolfileCreator 1.0

 37 41  0  0  0  0  0  0  0  0999 V2000
    0.0000   -0.0000   -0.0000 Cl  0  0  0  0  0  0  0  0  0  0  0  0
  -13.7509   -3.0080   -0.0000 F   0  0  0  0  0  0  0  0  0  0  0  0
  -13.3212   -4.1092   -0.0000 C   0  0  0  0  0  0  0  0  0  0  0  0
  -11.7903   -4.3106   -0.0000 C   0  0  0  0  0  0  0  0  0  0  0  0
  -14.3015   -5.3177   -0.0000 C   0  0  0  0  0  0  0  0  0  0  0  0
  -10.8369   -3.0751   -0.0000 O   0  0  0  0  0  0  0  0  0  0  0  0
  -11.2263   -5.6937   -0.0000 C   0  0  0  0  0  0  0  0  0  0  0  0
  -13.7375   -6.7143   -0.0000 C   0  0  0  0  0  0  0  0  0  0  0  0
   -9.2389   -3.2900   -0.0000 C   0  0  0  0  0  0  0  0  0  0  0  0
   -9.6954   -5.8952   -0.0000 C   0  0  0  0  0  0  0  0  0  0  0  0
  -12.2066   -6.9023   -0.0000 C   0  0  0  0  0  0  0  0  0  0  0  0
  -14.4895   -7.6543   -0.0000 F   0  0  0  0  0  0  0  0  0  0  0  0
   -8.7957   -4.7134   -0.0000 C   0  0  0  0  0  0  0  0  0  0  0  0
   -8.2854   -2.1351   -0.0000 C   0  0  0  0  0  0  0  0  0  0  0  0
   -9.1717   -7.3186   -0.0000 C   0  0  0  0  0  0  0  0  0  0  0  0
   -7.2649   -4.9149   -0.0000 C   0  0  0  0  0  0  0  0  0  0  0  0
   -6.8083   -2.3500   -0.0000 C   0  0  0  0  0  0  0  0  0  0  0  0
   -8.8494   -0.7251   -0.0000 C   0  0  0  0  0  0  0  0  0  0  0  0
   -7.6543   -7.5334   -0.0000 C   0  0  0  0  0  0  0  0  0  0  0  0
   -6.7009   -6.2980   -0.0000 C   0  0  0  0  0  0  0  0  0  0  0  0
   -6.3114   -3.6794   -0.0000 C   0  0  0  0  0  0  0  0  0  0  0  0
   -5.8817   -1.1549   -0.0000 C   0  0  0  0  0  0  0  0  0  0  0  0
   -7.9229    0.4700   -0.0000 C   0  0  0  0  0  0  0  0  0  0  0  0
   -5.1700   -6.4994   -0.0000 C   0  0  0  0  0  0  0  0  0  0  0  0
   -4.7940   -3.8809   -0.0000 C   0  0  0  0  0  0  0  0  0  0  0  0
   -6.4457    0.2551   -0.0000 C   0  0  0  0  0  0  0  0  0  0  0  0
   -4.2166   -5.2372   -0.0000 C   0  0  0  0  0  0  0  0  0  0  0  0
   -5.5192    1.4503   -0.0000 O   0  0  0  0  0  0  0  0  0  0  0  0
   -3.0349   -5.3714   -0.0000 O   0  0  0  0  0  0  0  0  0  0  0  0
   -6.0832    2.8603   -0.0000 C   0  0  0  0  0  0  0  0  0  0  0  0
   -5.1566    4.0554   -0.0000 C   0  0  0  0  0  0  0  0  0  0  0  0
   -5.7206    5.4654   -0.0000 N   0  0  0  0  0  0  0  0  0  0  0  0
   -4.8074    6.6606   -0.0000 C   0  0  0  0  0  0  0  0  0  0  0  0
   -7.2246    5.6937   -0.0000 C   0  0  0  0  0  0  0  0  0  0  0  0
   -5.3714    8.0706   -0.0000 C   0  0  0  0  0  0  0  0  0  0  0  0
   -7.7886    7.1037   -0.0000 C   0  0  0  0  0  0  0  0  0  0  0  0
   -6.8754    8.2989   -0.0000 C   0  0  0  0  0  0  0  0  0  0  0  0
  2  3  1  0  0  0  0
  3  4  2  0  0  0  0
  3  5  1  0  0  0  0
  4  6  1  0  0  0  0
  4  7  1  0  0  0  0
  5  8  2  0  0  0  0
  6  9  1  0  0  0  0
  7 10  1  0  0  0  0
  7 11  2  0  0  0  0
  8 12  1  0  0  0  0
  9 13  1  0  0  0  0
  9 14  1  1  0  0  0
 10 15  1  0  0  0  0
 13 16  1  0  0  0  0
 14 17  2  0  0  0  0
 14 18  1  0  0  0  0
 15 19  2  0  0  0  0
 16 20  1  0  0  0  0
 16 21  2  0  0  0  0
 17 22  1  0  0  0  0
 18 23  2  0  0  0  0
 20 24  2  0  0  0  0
 21 25  1  0  0  0  0
 22 26  2  0  0  0  0
 24 27  1  0  0  0  0
 26 28  1  0  0  0  0
 27 29  1  0  0  0  0
 28 30  1  0  0  0  0
 30 31  1  0  0  0  0
 31 32  1  0  0  0  0
 32 33  1  0  0  0  0
 32 34  1  0  0  0  0
 33 35  1  0  0  0  0
 34 36  1  0  0  0  0
 35 37  1  0  0  0  0
  8 11  1  0  0  0  0
 10 13  2  0  0  0  0
 19 20  1  0  0  0  0
 23 26  1  0  0  0  0
 25 27  2  0  0  0  0
 36 37  1  0  0  0  0
M  END
>  <MolRegNo>
549293

>  <m>
=

>  <Value>
0.3

>  <Unit>
nM

>  <Type>
Ki

>  <pValue>
9.52

>  <Ligand Efficiency>
0.36

>  <Binding Efficiency>
19.53

>  <Surface Efficiency>
22.71

>  <Assay Index>
256770

>  <Assay Category>


>  <Assay Organism>
Homo sapiens

>  <Target ID>
19

>  <Target Name>
Estrogen receptor alpha

>  <Target Organism>
Homo sapiens

>  <Target Description>
Target is a single protein chain

>  <Sequence Accession>
P03372

>  <Reference>
J Med Chem 49 (3), 843-846 (2006)

>  <Pubmed ID>
16451049

>  <DOI>
10.1021/jm0509795

$$$$
360298
Actelion Java MolfileCreator 1.0

 21 24  0  0  0  0  0  0  0  0999 V2000
    0.0000   -0.0000   -0.0000 O   0  0  0  0  0  0  0  0  0  0  0  0
   -1.3094   -0.7314   -0.0000 C   0  0  0  0  0  0  0  0  0  0  0  0
   -0.0118    1.5100   -0.0000 C   0  0  0  0  0  0  0  0  0  0  0  0
   -2.6189    0.0236   -0.0000 C   0  0  0  0  0  0  0  0  0  0  0  0
   -1.3212   -2.2178   -0.0000 C   0  0  0  0  0  0  0  0  0  0  0  0
    1.4746    1.5218   -0.0000 C   0  0  0  0  0  0  0  0  0  0  0  0
   -1.3802    2.2650   -0.0000 C   0  0  0  0  0  0  0  0  0  0  0  0
   -3.9283   -0.7078   -0.0000 C   0  0  0  0  0  0  0  0  0  0  0  0
   -2.6896    1.5336   -0.0000 C   0  0  0  0  0  0  0  0  0  0  0  0
   -2.6307   -2.9492   -0.0000 C   0  0  0  0  0  0  0  0  0  0  0  0
    2.2060    2.8312   -0.0000 C   0  0  0  0  0  0  0  0  0  0  0  0
    2.2060    0.2359   -0.0000 C   0  0  0  0  0  0  0  0  0  0  0  0
   -1.6987    3.7395   -0.0000 C   0  0  0  0  0  0  0  0  0  0  0  0
   -3.9401   -2.1942   -0.0000 C   0  0  0  0  0  0  0  0  0  0  0  0
   -3.8103    2.5481   -0.0000 C   0  0  0  0  0  0  0  0  0  0  0  0
    3.6924    2.8430   -0.0000 C   0  0  0  0  0  0  0  0  0  0  0  0
    3.6924    0.2477   -0.0000 C   0  0  0  0  0  0  0  0  0  0  0  0
   -3.1969    3.9047   -0.0000 C   0  0  0  0  0  0  0  0  0  0  0  0
   -5.2495   -2.9256   -0.0000 O   0  0  0  0  0  0  0  0  0  0  0  0
    4.4238    1.5572   -0.0000 C   0  0  0  0  0  0  0  0  0  0  0  0
    5.9101    1.5690   -0.0000 O   0  0  0  0  0  0  0  0  0  0  0  0
  1  2  1  0  0  0  0
  1  3  1  0  0  0  0
  2  4  2  0  0  0  0
  2  5  1  0  0  0  0
  3  6  1  1  0  0  0
  3  7  1  0  0  0  0
  4  8  1  0  0  0  0
  4  9  1  0  0  0  0
  5 10  2  0  0  0  0
  6 11  2  0  0  0  0
  6 12  1  0  0  0  0
  7 13  1  1  0  0  0
  8 14  2  0  0  0  0
  9 15  1  1  0  0  0
 11 16  1  0  0  0  0
 12 17  2  0  0  0  0
 13 18  1  0  0  0  0
 14 19  1  0  0  0  0
 16 20  2  0  0  0  0
 20 21  1  0  0  0  0
  7  9  1  0  0  0  0
 10 14  1  0  0  0  0
 15 18  1  0  0  0  0
 17 20  1  0  0  0  0
M  END
>  <MolRegNo>
360298

>  <m>
=

>  <Value>
2.68

>  <Unit>
nM

>  <Type>
Ki

>  <pValue>
8.57

>  <Ligand Efficiency>
0.56

>  <Binding Efficiency>
30.36

>  <Surface Efficiency>
17.25

>  <Assay Index>
270019

>  <Assay Category>


>  <Assay Organism>
Homo sapiens

>  <Target ID>
19

>  <Target Name>
Estrogen receptor alpha

>  <Target Organism>
Homo sapiens

>  <Target Description>
Target is a single protein chain

>  <Sequence Accession>
P03372

>  <Reference>
J Med Chem 49 (21), 6155-6157 (2006)

>  <Pubmed ID>
17034120

>  <DOI>
10.1021/jm060491j

$$$$
360307
Actelion Java MolfileCreator 1.0

 21 24  0  0  1  0  0  0  0  0999 V2000
    0.0000   -0.0000   -0.0000 O   0  0  0  0  0  0  0  0  0  0  0  0
   -1.3056    0.7477   -0.0000 C   0  0  0  0  0  0  0  0  0  0  0  0
    1.2818    0.7596   -0.0000 C   0  0  0  0  0  0  0  0  0  0  0  0
   -1.3293    2.2669   -0.0000 C   0  0  0  0  0  0  0  0  0  0  0  0
   -2.6230    0.0119   -0.0000 C   0  0  0  0  0  0  0  0  0  0  0  0
    2.5637    0.0237   -0.0000 C   0  0  0  0  0  0  0  0  0  0  0  0
    1.2700    2.2788   -0.0000 C   0  0  0  0  0  0  0  0  0  0  0  0
   -2.6467    3.0147   -0.0000 C   0  0  0  0  0  0  0  0  0  0  0  0
   -0.0593    3.0384   -0.0000 C   0  0  0  0  0  0  0  0  0  0  0  0
   -3.9286    0.7715   -0.0000 C   0  0  0  0  0  0  0  0  0  0  0  0
    2.5518   -1.4599   -0.0000 C   0  0  0  0  0  0  0  0  0  0  0  0
    3.8455    0.7833   -0.0000 C   0  0  0  0  0  0  0  0  0  0  0  0
    2.3738    3.3114   -0.0000 C   0  0  0  0  0  0  0  0  0  0  0  0
   -3.9404    2.2788   -0.0000 C   0  0  0  0  0  0  0  0  0  0  0  0
    0.2255    4.5220   -0.0000 C   0  0  0  0  0  0  0  0  0  0  0  0
    3.8336   -2.1839   -0.0000 C   0  0  0  0  0  0  0  0  0  0  0  0
    5.1273    0.0593   -0.0000 C   0  0  0  0  0  0  0  0  0  0  0  0
    1.7328    4.6882   -0.0000 C   0  0  0  0  0  0  0  0  0  0  0  0
   -5.2460    3.0384   -0.0000 O   0  0  0  0  0  0  0  0  0  0  0  0
    5.1154   -1.4243   -0.0000 C   0  0  0  0  0  0  0  0  0  0  0  0
    6.4091   -2.1482   -0.0000 O   0  0  0  0  0  0  0  0  0  0  0  0
  1  2  1  0  0  0  0
  1  3  1  0  0  0  0
  2  4  2  0  0  0  0
  2  5  1  0  0  0  0
  3  6  1  1  0  0  0
  3  7  1  0  0  0  0
  4  8  1  0  0  0  0
  4  9  1  0  0  0  0
  5 10  2  0  0  0  0
  6 11  2  0  0  0  0
  6 12  1  0  0  0  0
  7 13  1  1  0  0  0
  8 14  2  0  0  0  0
  9 15  1  1  0  0  0
 11 16  1  0  0  0  0
 12 17  2  0  0  0  0
 13 18  1  0  0  0  0
 14 19  1  0  0  0  0
 16 20  2  0  0  0  0
 20 21  1  0  0  0  0
  7  9  1  0  0  0  0
 10 14  1  0  0  0  0
 15 18  1  0  0  0  0
 17 20  1  0  0  0  0
M  END
>  <MolRegNo>
360307

>  <m>
=

>  <Value>
14.5

>  <Unit>
nM

>  <Type>
Ki

>  <pValue>
7.84

>  <Ligand Efficiency>
0.51

>  <Binding Efficiency>
27.76

>  <Surface Efficiency>
15.78

>  <Assay Index>
270019

>  <Assay Category>


>  <Assay Organism>
Homo sapiens

>  <Target ID>
19

>  <Target Name>
Estrogen receptor alpha

>  <Target Organism>
Homo sapiens

>  <Target Description>
Target is a single protein chain

>  <Sequence Accession>
P03372

>  <Reference>
J Med Chem 49 (21), 6155-6157 (2006)

>  <Pubmed ID>
17034120

>  <DOI>
10.1021/jm060491j

$$$$
365958
Actelion Java MolfileCreator 1.0

 39 43  0  0  0  0  0  0  0  0999 V2000
    0.0000   -0.0000   -0.0000 F   0  0  0  0  0  0  0  0  0  0  0  0
   -1.3014   -0.7453   -0.0000 C   0  0  0  0  0  0  0  0  0  0  0  0
   -0.5560   -2.0230   -0.0000 F   0  0  0  0  0  0  0  0  0  0  0  0
   -2.0704    0.5560   -0.0000 F   0  0  0  0  0  0  0  0  0  0  0  0
   -2.6027   -1.4788   -0.0000 C   0  0  0  0  0  0  0  0  0  0  0  0
   -3.9041   -0.7217   -0.0000 N   0  0  0  0  0  0  0  0  0  0  0  0
   -2.6146   -2.9695   -0.0000 C   0  0  0  0  0  0  0  0  0  0  0  0
   -5.2055   -1.4552   -0.0000 C   0  0  0  0  0  0  0  0  0  0  0  0
   -3.9278   -3.7030   -0.0000 C   0  0  0  0  0  0  0  0  0  0  0  0
   -5.2173   -2.9458   -0.0000 N   0  0  0  0  0  0  0  0  0  0  0  0
   -6.6488   -0.9819   -0.0000 C   0  0  0  0  0  0  0  0  0  0  0  0
   -3.9396   -5.1818   -0.0000 C   0  0  0  0  0  0  0  0  0  0  0  0
   -6.6606   -3.3954   -0.0000 N   0  0  0  0  0  0  0  0  0  0  0  0
   -7.1220    0.4496   -0.0000 C   0  0  0  0  0  0  0  0  0  0  0  0
   -7.5479   -2.1768   -0.0000 C   0  0  0  0  0  0  0  0  0  0  0  0
   -3.9632   -6.6606   -0.0000 F   0  0  0  0  0  0  0  0  0  0  0  0
   -2.4608   -5.1818   -0.0000 F   0  0  0  0  0  0  0  0  0  0  0  0
   -5.4421   -5.1700   -0.0000 F   0  0  0  0  0  0  0  0  0  0  0  0
   -6.1282    1.5735   -0.0000 C   0  0  0  0  0  0  0  0  0  0  0  0
   -8.5890    0.7690   -0.0000 C   0  0  0  0  0  0  0  0  0  0  0  0
   -9.0504   -2.1650   -0.0000 C   0  0  0  0  0  0  0  0  0  0  0  0
   -6.6015    3.0050   -0.0000 C   0  0  0  0  0  0  0  0  0  0  0  0
   -9.0622    2.2005   -0.0000 C   0  0  0  0  0  0  0  0  0  0  0  0
   -9.8076   -0.8518   -0.0000 C   0  0  0  0  0  0  0  0  0  0  0  0
   -9.8076   -3.4427   -0.0000 C   0  0  0  0  0  0  0  0  0  0  0  0
   -8.0685    3.3244   -0.0000 C   0  0  0  0  0  0  0  0  0  0  0  0
  -11.3100   -0.8400   -0.0000 C   0  0  0  0  0  0  0  0  0  0  0  0
  -11.3100   -3.4309   -0.0000 C   0  0  0  0  0  0  0  0  0  0  0  0
   -8.5417    4.7559   -0.0000 O   0  0  0  0  0  0  0  0  0  0  0  0
  -12.0672   -2.1177   -0.0000 C   0  0  0  0  0  0  0  0  0  0  0  0
  -13.5697   -2.1058   -0.0000 O   0  0  0  0  0  0  0  0  0  0  0  0
  -14.3268   -0.8045   -0.0000 C   0  0  0  0  0  0  0  0  0  0  0  0
  -15.8293   -0.7926   -0.0000 C   0  0  0  0  0  0  0  0  0  0  0  0
  -16.5865    0.5087   -0.0000 N   0  0  0  0  0  0  0  0  0  0  0  0
  -15.8530    1.8101   -0.0000 C   0  0  0  0  0  0  0  0  0  0  0  0
  -18.0890    0.5205   -0.0000 C   0  0  0  0  0  0  0  0  0  0  0  0
  -16.6102    3.1114   -0.0000 C   0  0  0  0  0  0  0  0  0  0  0  0
  -18.8343    1.8337   -0.0000 C   0  0  0  0  0  0  0  0  0  0  0  0
  -18.1126    3.1351   -0.0000 C   0  0  0  0  0  0  0  0  0  0  0  0
  1  2  1  0  0  0  0
  2  3  1  0  0  0  0
  2  4  1  0  0  0  0
  2  5  1  0  0  0  0
  5  6  2  0  0  0  0
  5  7  1  0  0  0  0
  6  8  1  0  0  0  0
  7  9  2  0  0  0  0
  8 10  1  0  0  0  0
  8 11  2  0  0  0  0
  9 12  1  0  0  0  0
 10 13  1  0  0  0  0
 11 14  1  0  0  0  0
 11 15  1  0  0  0  0
 12 16  1  0  0  0  0
 12 17  1  0  0  0  0
 12 18  1  0  0  0  0
 14 19  2  0  0  0  0
 14 20  1  0  0  0  0
 15 21  1  0  0  0  0
 19 22  1  0  0  0  0
 20 23  2  0  0  0  0
 21 24  2  0  0  0  0
 21 25  1  0  0  0  0
 22 26  2  0  0  0  0
 24 27  1  0  0  0  0
 25 28  2  0  0  0  0
 26 29  1  0  0  0  0
 27 30  2  0  0  0  0
 30 31  1  0  0  0  0
 31 32  1  0  0  0  0
 32 33  1  0  0  0  0
 33 34  1  0  0  0  0
 34 35  1  0  0  0  0
 34 36  1  0  0  0  0
 35 37  1  0  0  0  0
 36 38  1  0  0  0  0
 37 39  1  0  0  0  0
  9 10  1  0  0  0  0
 13 15  2  0  0  0  0
 23 26  1  0  0  0  0
 28 30  1  0  0  0  0
 38 39  1  0  0  0  0
M  END
>  <MolRegNo>
365958

>  <m>
=

>  <Value>
266

>  <Unit>
nM

>  <Type>
Ki

>  <pValue>
6.58

>  <Ligand Efficiency>
0.23

>  <Binding Efficiency>
11.94

>  <Surface Efficiency>
10.45

>  <Assay Index>
272736

>  <Assay Category>


>  <Assay Organism>
Homo sapiens

>  <Target ID>
19

>  <Target Name>
Estrogen receptor alpha

>  <Target Organism>
Homo sapiens

>  <Target Description>
Target is a single protein chain

>  <Sequence Accession>
P03372

>  <Reference>
J Med Chem 50 (2), 399-403 (2007)

>  <Pubmed ID>
17228884

>  <DOI>
10.1021/jm061035y

$$$$
365961
Actelion Java MolfileCreator 1.0

 36 39  0  0  0  0  0  0  0  0999 V2000
    0.0000   -0.0000   -0.0000 F   0  0  0  0  0  0  0  0  0  0  0  0
   -1.3015   -0.7454   -0.0000 C   0  0  0  0  0  0  0  0  0  0  0  0
   -0.5561   -2.0232   -0.0000 F   0  0  0  0  0  0  0  0  0  0  0  0
   -2.0706    0.5561   -0.0000 F   0  0  0  0  0  0  0  0  0  0  0  0
   -2.6030   -1.4790   -0.0000 C   0  0  0  0  0  0  0  0  0  0  0  0
   -3.9045   -0.7217   -0.0000 N   0  0  0  0  0  0  0  0  0  0  0  0
   -2.6148   -2.9698   -0.0000 C   0  0  0  0  0  0  0  0  0  0  0  0
   -5.2060   -1.4553   -0.0000 C   0  0  0  0  0  0  0  0  0  0  0  0
   -3.9282   -3.7034   -0.0000 C   0  0  0  0  0  0  0  0  0  0  0  0
   -5.2179   -2.9461   -0.0000 N   0  0  0  0  0  0  0  0  0  0  0  0
   -6.6495   -0.9820   -0.0000 C   0  0  0  0  0  0  0  0  0  0  0  0
   -3.9400   -5.1824   -0.0000 C   0  0  0  0  0  0  0  0  0  0  0  0
   -6.6613   -3.3957   -0.0000 N   0  0  0  0  0  0  0  0  0  0  0  0
   -7.1228    0.4496   -0.0000 C   0  0  0  0  0  0  0  0  0  0  0  0
   -7.5487   -2.1771   -0.0000 C   0  0  0  0  0  0  0  0  0  0  0  0
   -3.9637   -6.6613   -0.0000 F   0  0  0  0  0  0  0  0  0  0  0  0
   -2.4610   -5.1824   -0.0000 F   0  0  0  0  0  0  0  0  0  0  0  0
   -5.4427   -5.1705   -0.0000 F   0  0  0  0  0  0  0  0  0  0  0  0
   -6.1289    1.5736   -0.0000 C   0  0  0  0  0  0  0  0  0  0  0  0
   -8.5899    0.7691   -0.0000 C   0  0  0  0  0  0  0  0  0  0  0  0
   -9.0514   -2.1652   -0.0000 C   0  0  0  0  0  0  0  0  0  0  0  0
   -6.6022    3.0053   -0.0000 C   0  0  0  0  0  0  0  0  0  0  0  0
   -9.0632    2.2007   -0.0000 C   0  0  0  0  0  0  0  0  0  0  0  0
   -9.8086   -0.8519   -0.0000 C   0  0  0  0  0  0  0  0  0  0  0  0
   -9.8086   -3.4431   -0.0000 C   0  0  0  0  0  0  0  0  0  0  0  0
   -8.0693    3.3248   -0.0000 C   0  0  0  0  0  0  0  0  0  0  0  0
  -11.3113   -0.8401   -0.0000 C   0  0  0  0  0  0  0  0  0  0  0  0
  -11.3113   -3.4312   -0.0000 C   0  0  0  0  0  0  0  0  0  0  0  0
   -8.5426    4.7564   -0.0000 O   0  0  0  0  0  0  0  0  0  0  0  0
  -12.0685   -2.1179   -0.0000 C   0  0  0  0  0  0  0  0  0  0  0  0
  -13.5712   -2.1061   -0.0000 O   0  0  0  0  0  0  0  0  0  0  0  0
  -14.3284   -0.8046   -0.0000 C   0  0  0  0  0  0  0  0  0  0  0  0
  -15.8310   -0.7927   -0.0000 C   0  0  0  0  0  0  0  0  0  0  0  0
  -16.5883    0.5088   -0.0000 N   0  0  0  0  0  0  0  0  0  0  0  0
  -18.0909    0.5206   -0.0000 C   0  0  0  0  0  0  0  0  0  0  0  0
  -15.8547    1.8103   -0.0000 C   0  0  0  0  0  0  0  0  0  0  0  0
  1  2  1  0  0  0  0
  2  3  1  0  0  0  0
  2  4  1  0  0  0  0
  2  5  1  0  0  0  0
  5  6  2  0  0  0  0
  5  7  1  0  0  0  0
  6  8  1  0  0  0  0
  7  9  2  0  0  0  0
  8 10  1  0  0  0  0
  8 11  2  0  0  0  0
  9 12  1  0  0  0  0
 10 13  1  0  0  0  0
 11 14  1  0  0  0  0
 11 15  1  0  0  0  0
 12 16  1  0  0  0  0
 12 17  1  0  0  0  0
 12 18  1  0  0  0  0
 14 19  2  0  0  0  0
 14 20  1  0  0  0  0
 15 21  1  0  0  0  0
 19 22  1  0  0  0  0
 20 23  2  0  0  0  0
 21 24  2  0  0  0  0
 21 25  1  0  0  0  0
 22 26  2  0  0  0  0
 24 27  1  0  0  0  0
 25 28  2  0  0  0  0
 26 29  1  0  0  0  0
 27 30  2  0  0  0  0
 30 31  1  0  0  0  0
 31 32  1  0  0  0  0
 32 33  1  0  0  0  0
 33 34  1  0  0  0  0
 34 35  1  0  0  0  0
 34 36  1  0  0  0  0
  9 10  1  0  0  0  0
 13 15  2  0  0  0  0
 23 26  1  0  0  0  0
 28 30  1  0  0  0  0
M  END
>  <MolRegNo>
365961

>  <m>
=

>  <Value>
408

>  <Unit>
nM

>  <Type>
Ki

>  <pValue>
6.39

>  <Ligand Efficiency>
0.24

>  <Binding Efficiency>
12.52

>  <Surface Efficiency>
10.16

>  <Assay Index>
272736

>  <Assay Category>


>  <Assay Organism>
Homo sapiens

>  <Target ID>
19

>  <Target Name>
Estrogen receptor alpha

>  <Target Organism>
Homo sapiens

>  <Target Description>
Target is a single protein chain

>  <Sequence Accession>
P03372

>  <Reference>
J Med Chem 50 (2), 399-403 (2007)

>  <Pubmed ID>
17228884

>  <DOI>
10.1021/jm061035y

$$$$
310496
Actelion Java MolfileCreator 1.0

 24 27  0  0  0  0  0  0  0  0999 V2000
    0.0000   -0.0000   -0.0000 O   0  0  0  0  0  0  0  0  0  0  0  0
    1.3008    0.7568   -0.0000 C   0  0  0  0  0  0  0  0  0  0  0  0
    1.2890    2.2705   -0.0000 C   0  0  0  0  0  0  0  0  0  0  0  0
    2.5662    0.0118   -0.0000 C   0  0  0  0  0  0  0  0  0  0  0  0
    2.5543    3.0274   -0.0000 N   0  0  0  0  0  0  0  0  0  0  0  0
    3.8788    0.7687   -0.0000 N   0  0  0  0  0  0  0  0  0  0  0  0
    3.8670    2.2942   -0.0000 C   0  0  0  0  0  0  0  0  0  0  0  0
    5.2742    0.3311   -0.0000 N   0  0  0  0  0  0  0  0  0  0  0  0
    5.2624    2.7790   -0.0000 C   0  0  0  0  0  0  0  0  0  0  0  0
    6.1612    1.5492   -0.0000 C   0  0  0  0  0  0  0  0  0  0  0  0
    5.7473    4.1981   -0.0000 C   0  0  0  0  0  0  0  0  0  0  0  0
    7.6394    1.5610   -0.0000 C   0  0  0  0  0  0  0  0  0  0  0  0
    7.2018    4.5292   -0.0000 C   0  0  0  0  0  0  0  0  0  0  0  0
    4.7184    5.3215   -0.0000 C   0  0  0  0  0  0  0  0  0  0  0  0
    8.3844    2.8736   -0.0000 C   0  0  0  0  0  0  0  0  0  0  0  0
    8.3962    0.2720   -0.0000 C   0  0  0  0  0  0  0  0  0  0  0  0
    7.6630    5.9719   -0.0000 C   0  0  0  0  0  0  0  0  0  0  0  0
    5.1796    6.7643   -0.0000 C   0  0  0  0  0  0  0  0  0  0  0  0
    9.8744    2.8855   -0.0000 C   0  0  0  0  0  0  0  0  0  0  0  0
    9.8744    0.2838   -0.0000 C   0  0  0  0  0  0  0  0  0  0  0  0
    6.6342    7.0954   -0.0000 C   0  0  0  0  0  0  0  0  0  0  0  0
   10.6313    1.5965   -0.0000 C   0  0  0  0  0  0  0  0  0  0  0  0
    7.0954    8.5381   -0.0000 O   0  0  0  0  0  0  0  0  0  0  0  0
   12.1213    1.6083   -0.0000 O   0  0  0  0  0  0  0  0  0  0  0  0
  1  2  1  0  0  0  0
  2  3  1  0  0  0  0
  2  4  2  0  0  0  0
  3  5  2  0  0  0  0
  4  6  1  0  0  0  0
  5  7  1  0  0  0  0
  6  8  1  0  0  0  0
  7  9  2  0  0  0  0
  8 10  2  0  0  0  0
  9 11  1  0  0  0  0
 10 12  1  0  0  0  0
 11 13  2  0  0  0  0
 11 14  1  0  0  0  0
 12 15  2  0  0  0  0
 12 16  1  0  0  0  0
 13 17  1  0  0  0  0
 14 18  2  0  0  0  0
 15 19  1  0  0  0  0
 16 20  2  0  0  0  0
 17 21  2  0  0  0  0
 19 22  2  0  0  0  0
 21 23  1  0  0  0  0
 22 24  1  0  0  0  0
  6  7  1  0  0  0  0
  9 10  1  0  0  0  0
 18 21  1  0  0  0  0
 20 22  1  0  0  0  0
M  END
>  <MolRegNo>
310496

>  <m>
=

>  <Value>
3333

>  <Unit>
nM

>  <Type>
Ki

>  <pValue>
5.48

>  <Ligand Efficiency>
0.31

>  <Binding Efficiency>
17.15

>  <Surface Efficiency>
6.03

>  <Assay Index>
272736

>  <Assay Category>


>  <Assay Organism>
Homo sapiens

>  <Target ID>
19

>  <Target Name>
Estrogen receptor alpha

>  <Target Organism>
Homo sapiens

>  <Target Description>
Target is a single protein chain

>  <Sequence Accession>
P03372

>  <Reference>
J Med Chem 50 (2), 399-403 (2007)

>  <Pubmed ID>
17228884

>  <DOI>
10.1021/jm061035y

$$$$
316751
Actelion Java MolfileCreator 1.0

 30 33  0  0  0  0  0  0  0  0999 V2000
    0.0000   -0.0000   -0.0000 F   0  0  0  0  0  0  0  0  0  0  0  0
   -1.1969   -0.6344   -0.0000 C   0  0  0  0  0  0  0  0  0  0  0  0
    0.2394   -1.2089   -0.0000 F   0  0  0  0  0  0  0  0  0  0  0  0
   -0.9336    0.8977   -0.0000 F   0  0  0  0  0  0  0  0  0  0  0  0
   -2.5256   -1.3525   -0.0000 C   0  0  0  0  0  0  0  0  0  0  0  0
   -3.8183   -0.5506   -0.0000 N   0  0  0  0  0  0  0  0  0  0  0  0
   -2.5854   -2.8368   -0.0000 C   0  0  0  0  0  0  0  0  0  0  0  0
   -5.1349   -1.2568   -0.0000 C   0  0  0  0  0  0  0  0  0  0  0  0
   -3.9140   -3.5549   -0.0000 C   0  0  0  0  0  0  0  0  0  0  0  0
   -5.1947   -2.7410   -0.0000 N   0  0  0  0  0  0  0  0  0  0  0  0
   -6.5712   -0.7421   -0.0000 C   0  0  0  0  0  0  0  0  0  0  0  0
   -3.9739   -5.0391   -0.0000 C   0  0  0  0  0  0  0  0  0  0  0  0
   -6.6311   -3.1599   -0.0000 N   0  0  0  0  0  0  0  0  0  0  0  0
   -7.0021    0.6942   -0.0000 C   0  0  0  0  0  0  0  0  0  0  0  0
   -7.4809   -1.9271   -0.0000 C   0  0  0  0  0  0  0  0  0  0  0  0
   -4.0098   -6.3917   -0.0000 F   0  0  0  0  0  0  0  0  0  0  0  0
   -5.2067   -5.9847   -0.0000 F   0  0  0  0  0  0  0  0  0  0  0  0
   -2.7889   -6.0446   -0.0000 F   0  0  0  0  0  0  0  0  0  0  0  0
   -5.9847    1.7954   -0.0000 C   0  0  0  0  0  0  0  0  0  0  0  0
   -8.4624    1.0413   -0.0000 C   0  0  0  0  0  0  0  0  0  0  0  0
   -8.9771   -1.8672   -0.0000 C   0  0  0  0  0  0  0  0  0  0  0  0
   -6.4276    3.2317   -0.0000 C   0  0  0  0  0  0  0  0  0  0  0  0
   -8.9172    2.5016   -0.0000 C   0  0  0  0  0  0  0  0  0  0  0  0
   -9.7551   -3.1360   -0.0000 C   0  0  0  0  0  0  0  0  0  0  0  0
   -9.7192   -0.5386   -0.0000 C   0  0  0  0  0  0  0  0  0  0  0  0
   -7.8998    3.5789   -0.0000 C   0  0  0  0  0  0  0  0  0  0  0  0
  -11.2632   -3.0881   -0.0000 C   0  0  0  0  0  0  0  0  0  0  0  0
  -11.2273   -0.5027   -0.0000 C   0  0  0  0  0  0  0  0  0  0  0  0
  -12.0053   -1.7475   -0.0000 C   0  0  0  0  0  0  0  0  0  0  0  0
  -13.5135   -1.7236   -0.0000 O   0  0  0  0  0  0  0  0  0  0  0  0
  1  2  1  0  0  0  0
  2  3  1  0  0  0  0
  2  4  1  0  0  0  0
  2  5  1  0  0  0  0
  5  6  2  0  0  0  0
  5  7  1  0  0  0  0
  6  8  1  0  0  0  0
  7  9  2  0  0  0  0
  8 10  1  0  0  0  0
  8 11  2  0  0  0  0
  9 12  1  0  0  0  0
 10 13  1  0  0  0  0
 11 14  1  0  0  0  0
 11 15  1  0  0  0  0
 12 16  1  0  0  0  0
 12 17  1  0  0  0  0
 12 18  1  0  0  0  0
 14 19  2  0  0  0  0
 14 20  1  0  0  0  0
 15 21  1  0  0  0  0
 19 22  1  0  0  0  0
 20 23  2  0  0  0  0
 21 24  2  0  0  0  0
 21 25  1  0  0  0  0
 22 26  2  0  0  0  0
 24 27  1  0  0  0  0
 25 28  2  0  0  0  0
 27 29  2  0  0  0  0
 29 30  1  0  0  0  0
  9 10  1  0  0  0  0
 13 15  2  0  0  0  0
 23 26  1  0  0  0  0
 28 29  1  0  0  0  0
M  END
>  <MolRegNo>
316751

>  <m>
=

>  <Value>
51

>  <Unit>
nM

>  <Type>
Ki

>  <pValue>
7.29

>  <Ligand Efficiency>
0.33

>  <Binding Efficiency>
17.23

>  <Surface Efficiency>
14.46

>  <Assay Index>
272736

>  <Assay Category>


>  <Assay Organism>
Homo sapiens

>  <Target ID>
19

>  <Target Name>
Estrogen receptor alpha

>  <Target Organism>
Homo sapiens

>  <Target Description>
Target is a single protein chain

>  <Sequence Accession>
P03372

>  <Reference>
J Med Chem 50 (2), 399-403 (2007)

>  <Pubmed ID>
17228884

>  <DOI>
10.1021/jm061035y

$$$$
317072
Actelion Java MolfileCreator 1.0

 30 33  0  0  0  0  0  0  0  0999 V2000
    0.0000   -0.0000   -0.0000 F   0  0  0  0  0  0  0  0  0  0  0  0
   -1.1957   -0.6401   -0.0000 C   0  0  0  0  0  0  0  0  0  0  0  0
    0.2415   -1.2198   -0.0000 F   0  0  0  0  0  0  0  0  0  0  0  0
   -0.9300    0.9058   -0.0000 F   0  0  0  0  0  0  0  0  0  0  0  0
   -2.5242   -1.3527   -0.0000 C   0  0  0  0  0  0  0  0  0  0  0  0
   -3.8044   -0.5556   -0.0000 N   0  0  0  0  0  0  0  0  0  0  0  0
   -2.5846   -2.8382   -0.0000 C   0  0  0  0  0  0  0  0  0  0  0  0
   -5.1329   -1.2560   -0.0000 C   0  0  0  0  0  0  0  0  0  0  0  0
   -3.9010   -3.5508   -0.0000 C   0  0  0  0  0  0  0  0  0  0  0  0
   -5.1812   -2.7416   -0.0000 N   0  0  0  0  0  0  0  0  0  0  0  0
   -6.5580   -0.7488   -0.0000 C   0  0  0  0  0  0  0  0  0  0  0  0
   -3.9735   -5.0363   -0.0000 C   0  0  0  0  0  0  0  0  0  0  0  0
   -6.6305   -3.1643   -0.0000 N   0  0  0  0  0  0  0  0  0  0  0  0
   -6.9928    0.6884   -0.0000 C   0  0  0  0  0  0  0  0  0  0  0  0
   -7.4638   -1.9324   -0.0000 C   0  0  0  0  0  0  0  0  0  0  0  0
   -4.0097   -6.3889   -0.0000 F   0  0  0  0  0  0  0  0  0  0  0  0
   -5.1933   -5.9783   -0.0000 F   0  0  0  0  0  0  0  0  0  0  0  0
   -2.7657   -6.0387   -0.0000 F   0  0  0  0  0  0  0  0  0  0  0  0
   -5.9904    1.7875   -0.0000 C   0  0  0  0  0  0  0  0  0  0  0  0
   -8.4542    1.0387   -0.0000 C   0  0  0  0  0  0  0  0  0  0  0  0
   -8.9735   -1.8720   -0.0000 C   0  0  0  0  0  0  0  0  0  0  0  0
   -6.4131    3.2247   -0.0000 C   0  0  0  0  0  0  0  0  0  0  0  0
   -8.9252    2.4879   -0.0000 C   0  0  0  0  0  0  0  0  0  0  0  0
   -9.7465   -3.1401   -0.0000 C   0  0  0  0  0  0  0  0  0  0  0  0
   -9.7102   -0.5435   -0.0000 C   0  0  0  0  0  0  0  0  0  0  0  0
   -7.8865    3.5749   -0.0000 C   0  0  0  0  0  0  0  0  0  0  0  0
  -11.2682   -3.0918   -0.0000 C   0  0  0  0  0  0  0  0  0  0  0  0
  -11.2078   -0.5073   -0.0000 C   0  0  0  0  0  0  0  0  0  0  0  0
   -8.3092    5.0121   -0.0000 O   0  0  0  0  0  0  0  0  0  0  0  0
  -12.0049   -1.7633   -0.0000 C   0  0  0  0  0  0  0  0  0  0  0  0
  1  2  1  0  0  0  0
  2  3  1  0  0  0  0
  2  4  1  0  0  0  0
  2  5  1  0  0  0  0
  5  6  2  0  0  0  0
  5  7  1  0  0  0  0
  6  8  1  0  0  0  0
  7  9  2  0  0  0  0
  8 10  1  0  0  0  0
  8 11  2  0  0  0  0
  9 12  1  0  0  0  0
 10 13  1  0  0  0  0
 11 14  1  0  0  0  0
 11 15  1  0  0  0  0
 12 16  1  0  0  0  0
 12 17  1  0  0  0  0
 12 18  1  0  0  0  0
 14 19  2  0  0  0  0
 14 20  1  0  0  0  0
 15 21  1  0  0  0  0
 19 22  1  0  0  0  0
 20 23  2  0  0  0  0
 21 24  2  0  0  0  0
 21 25  1  0  0  0  0
 22 26  2  0  0  0  0
 24 27  1  0  0  0  0
 25 28  2  0  0  0  0
 26 29  1  0  0  0  0
 27 30  2  0  0  0  0
  9 10  1  0  0  0  0
 13 15  2  0  0  0  0
 23 26  1  0  0  0  0
 28 30  1  0  0  0  0
M  END
>  <MolRegNo>
317072

>  <m>
=

>  <Value>
2222

>  <Unit>
nM

>  <Type>
Ki

>  <pValue>
5.65

>  <Ligand Efficiency>
0.26

>  <Binding Efficiency>
13.35

>  <Surface Efficiency>
11.21

>  <Assay Index>
272736

>  <Assay Category>


>  <Assay Organism>
Homo sapiens

>  <Target ID>
19

>  <Target Name>
Estrogen receptor alpha

>  <Target Organism>
Homo sapiens

>  <Target Description>
Target is a single protein chain

>  <Sequence Accession>
P03372

>  <Reference>
J Med Chem 50 (2), 399-403 (2007)

>  <Pubmed ID>
17228884

>  <DOI>
10.1021/jm061035y

$$$$
386853
Actelion Java MolfileCreator 1.0

 39 43  0  0  0  0  0  0  0  0999 V2000
    0.0000   -0.0000   -0.0000 S   0  0  0  0  0  0  0  0  0  0  0  0
    0.7467   -1.2800   -0.0000 O   0  0  0  0  0  0  0  0  0  0  0  0
   -0.7704    1.3037   -0.0000 O   0  0  0  0  0  0  0  0  0  0  0  0
    1.2681    0.7704   -0.0000 N   0  0  0  0  0  0  0  0  0  0  0  0
   -1.3037   -0.7467   -0.0000 C   0  0  0  0  0  0  0  0  0  0  0  0
    2.5600    0.0474   -0.0000 C   0  0  0  0  0  0  0  0  0  0  0  0
    1.2444    2.2755   -0.0000 C   0  0  0  0  0  0  0  0  0  0  0  0
   -1.3037   -2.2281   -0.0000 C   0  0  0  0  0  0  0  0  0  0  0  0
   -2.6192   -0.0000   -0.0000 C   0  0  0  0  0  0  0  0  0  0  0  0
   -2.6074   -2.9748   -0.0000 C   0  0  0  0  0  0  0  0  0  0  0  0
   -3.9111   -0.7467   -0.0000 C   0  0  0  0  0  0  0  0  0  0  0  0
   -3.9229   -2.2163   -0.0000 C   0  0  0  0  0  0  0  0  0  0  0  0
   -5.2148   -2.9629   -0.0000 C   0  0  0  0  0  0  0  0  0  0  0  0
   -6.5303   -2.2163   -0.0000 C   0  0  0  0  0  0  0  0  0  0  0  0
   -5.2148   -4.4563   -0.0000 C   0  0  0  0  0  0  0  0  0  0  0  0
   -6.5540   -0.7111   -0.0000 O   0  0  0  0  0  0  0  0  0  0  0  0
   -7.8340   -2.9511   -0.0000 C   0  0  0  0  0  0  0  0  0  0  0  0
   -6.5185   -5.1911   -0.0000 C   0  0  0  0  0  0  0  0  0  0  0  0
   -7.8696    0.0356   -0.0000 C   0  0  0  0  0  0  0  0  0  0  0  0
   -7.8459   -4.4444   -0.0000 C   0  0  0  0  0  0  0  0  0  0  0  0
   -9.1496   -2.2044   -0.0000 C   0  0  0  0  0  0  0  0  0  0  0  0
   -7.8814    1.5407   -0.0000 C   0  0  0  0  0  0  0  0  0  0  0  0
   -9.1614   -0.7111   -0.0000 C   0  0  0  0  0  0  0  0  0  0  0  0
   -9.1614   -5.1911   -0.0000 C   0  0  0  0  0  0  0  0  0  0  0  0
  -10.4532   -2.9392   -0.0000 C   0  0  0  0  0  0  0  0  0  0  0  0
   -9.1851    2.2874   -0.0000 C   0  0  0  0  0  0  0  0  0  0  0  0
  -10.4770    0.0356   -0.0000 C   0  0  0  0  0  0  0  0  0  0  0  0
  -10.4651   -4.4326   -0.0000 C   0  0  0  0  0  0  0  0  0  0  0  0
  -10.4888    1.5407   -0.0000 C   0  0  0  0  0  0  0  0  0  0  0  0
  -11.7688   -5.1674   -0.0000 O   0  0  0  0  0  0  0  0  0  0  0  0
  -11.8043    2.2874   -0.0000 O   0  0  0  0  0  0  0  0  0  0  0  0
  -13.1080    1.5407   -0.0000 C   0  0  0  0  0  0  0  0  0  0  0  0
  -14.4236    2.2874   -0.0000 C   0  0  0  0  0  0  0  0  0  0  0  0
  -15.7273    1.5407   -0.0000 N   0  0  0  0  0  0  0  0  0  0  0  0
  -17.0310    2.2874   -0.0000 C   0  0  0  0  0  0  0  0  0  0  0  0
  -15.7273    0.0474   -0.0000 C   0  0  0  0  0  0  0  0  0  0  0  0
  -18.3110    1.5526   -0.0000 C   0  0  0  0  0  0  0  0  0  0  0  0
  -17.0310   -0.6993   -0.0000 C   0  0  0  0  0  0  0  0  0  0  0  0
  -18.3228    0.0711   -0.0000 C   0  0  0  0  0  0  0  0  0  0  0  0
  1  2  2  0  0  0  0
  1  3  2  0  0  0  0
  1  4  1  0  0  0  0
  1  5  1  0  0  0  0
  4  6  1  0  0  0  0
  4  7  1  0  0  0  0
  5  8  2  0  0  0  0
  5  9  1  0  0  0  0
  8 10  1  0  0  0  0
  9 11  2  0  0  0  0
 10 12  2  0  0  0  0
 12 13  1  0  0  0  0
 13 14  2  0  0  0  0
 13 15  1  0  0  0  0
 14 16  1  0  0  0  0
 14 17  1  0  0  0  0
 15 18  2  0  0  0  0
 16 19  1  0  0  0  0
 17 20  1  0  0  0  0
 17 21  2  0  0  0  0
 19 22  2  0  0  0  0
 19 23  1  0  0  0  0
 20 24  2  0  0  0  0
 21 25  1  0  0  0  0
 22 26  1  0  0  0  0
 23 27  2  0  0  0  0
 24 28  1  0  0  0  0
 26 29  2  0  0  0  0
 28 30  1  0  0  0  0
 29 31  1  0  0  0  0
 31 32  1  0  0  0  0
 32 33  1  0  0  0  0
 33 34  1  0  0  0  0
 34 35  1  0  0  0  0
 34 36  1  0  0  0  0
 35 37  1  0  0  0  0
 36 38  1  0  0  0  0
 37 39  1  0  0  0  0
 11 12  1  0  0  0  0
 18 20  1  0  0  0  0
 25 28  2  0  0  0  0
 27 29  1  0  0  0  0
 38 39  1  0  0  0  0
M  END
>  <MolRegNo>
386853

>  <m>
=

>  <Value>
0.4

>  <Unit>
nM

>  <Type>
Ki

>  <pValue>
9.4

>  <Ligand Efficiency>
0.33

>  <Binding Efficiency>
17.19

>  <Surface Efficiency>
11.85

>  <Assay Index>
287641

>  <Assay Category>


>  <Assay Organism>
Homo sapiens

>  <Target ID>
19

>  <Target Name>
Estrogen receptor alpha

>  <Target Organism>
Homo sapiens

>  <Target Description>
Target is a single protein chain

>  <Sequence Accession>
P03372

>  <Reference>
Bioorg Med Chem Lett 17 (13), 3544-3549 (2007)

>  <Pubmed ID>
17482463

>  <DOI>
10.1016/j.bmcl.2007.04.044

$$$$
386866
Actelion Java MolfileCreator 1.0

 37 41  0  0  0  0  0  0  0  0999 V2000
    0.0000   -0.0000   -0.0000 S   0  0  0  0  0  0  0  0  0  0  0  0
    0.7464   -1.2796   -0.0000 O   0  0  0  0  0  0  0  0  0  0  0  0
   -0.7701    1.3033   -0.0000 O   0  0  0  0  0  0  0  0  0  0  0  0
   -1.3033   -0.7464   -0.0000 C   0  0  0  0  0  0  0  0  0  0  0  0
    1.2678    0.7701   -0.0000 C   0  0  0  0  0  0  0  0  0  0  0  0
   -2.6185   -0.0000   -0.0000 C   0  0  0  0  0  0  0  0  0  0  0  0
   -1.3033   -2.2275   -0.0000 C   0  0  0  0  0  0  0  0  0  0  0  0
   -3.9100   -0.7464   -0.0000 C   0  0  0  0  0  0  0  0  0  0  0  0
   -2.6066   -2.9739   -0.0000 C   0  0  0  0  0  0  0  0  0  0  0  0
   -3.9100   -2.2275   -0.0000 C   0  0  0  0  0  0  0  0  0  0  0  0
   -5.2014   -2.9739   -0.0000 C   0  0  0  0  0  0  0  0  0  0  0  0
   -6.5166   -2.2275   -0.0000 C   0  0  0  0  0  0  0  0  0  0  0  0
   -5.2014   -4.4668   -0.0000 C   0  0  0  0  0  0  0  0  0  0  0  0
   -6.5403   -0.7228   -0.0000 O   0  0  0  0  0  0  0  0  0  0  0  0
   -7.8199   -2.9621   -0.0000 C   0  0  0  0  0  0  0  0  0  0  0  0
   -6.5048   -5.2014   -0.0000 C   0  0  0  0  0  0  0  0  0  0  0  0
   -7.8555    0.0237   -0.0000 C   0  0  0  0  0  0  0  0  0  0  0  0
   -7.8318   -4.4550   -0.0000 C   0  0  0  0  0  0  0  0  0  0  0  0
   -9.1351   -2.2038   -0.0000 C   0  0  0  0  0  0  0  0  0  0  0  0
   -7.8673    1.5284   -0.0000 C   0  0  0  0  0  0  0  0  0  0  0  0
   -9.1470   -0.7228   -0.0000 C   0  0  0  0  0  0  0  0  0  0  0  0
   -9.1470   -5.2014   -0.0000 C   0  0  0  0  0  0  0  0  0  0  0  0
  -10.4266   -2.9384   -0.0000 C   0  0  0  0  0  0  0  0  0  0  0  0
   -9.1707    2.2749   -0.0000 C   0  0  0  0  0  0  0  0  0  0  0  0
  -10.4621    0.0237   -0.0000 C   0  0  0  0  0  0  0  0  0  0  0  0
  -10.4503   -4.4431   -0.0000 C   0  0  0  0  0  0  0  0  0  0  0  0
  -10.4740    1.5284   -0.0000 C   0  0  0  0  0  0  0  0  0  0  0  0
  -11.7536   -5.1777   -0.0000 O   0  0  0  0  0  0  0  0  0  0  0  0
  -11.7892    2.2749   -0.0000 O   0  0  0  0  0  0  0  0  0  0  0  0
  -13.0925    1.5284   -0.0000 C   0  0  0  0  0  0  0  0  0  0  0  0
  -14.4076    2.2749   -0.0000 C   0  0  0  0  0  0  0  0  0  0  0  0
  -15.7110    1.5284   -0.0000 N   0  0  0  0  0  0  0  0  0  0  0  0
  -17.0143    2.2749   -0.0000 C   0  0  0  0  0  0  0  0  0  0  0  0
  -15.7110    0.0355   -0.0000 C   0  0  0  0  0  0  0  0  0  0  0  0
  -18.2939    1.5403   -0.0000 C   0  0  0  0  0  0  0  0  0  0  0  0
  -17.0143   -0.7109   -0.0000 C   0  0  0  0  0  0  0  0  0  0  0  0
  -18.3058    0.0592   -0.0000 C   0  0  0  0  0  0  0  0  0  0  0  0
  1  2  2  0  0  0  0
  1  3  2  0  0  0  0
  1  4  1  0  0  0  0
  1  5  1  0  0  0  0
  4  6  1  0  0  0  0
  4  7  1  0  0  0  0
  6  8  1  0  0  0  0
  7  9  1  0  0  0  0
  8 10  2  0  0  0  0
 10 11  1  0  0  0  0
 11 12  2  0  0  0  0
 11 13  1  0  0  0  0
 12 14  1  0  0  0  0
 12 15  1  0  0  0  0
 13 16  2  0  0  0  0
 14 17  1  0  0  0  0
 15 18  1  0  0  0  0
 15 19  2  0  0  0  0
 17 20  2  0  0  0  0
 17 21  1  0  0  0  0
 18 22  2  0  0  0  0
 19 23  1  0  0  0  0
 20 24  1  0  0  0  0
 21 25  2  0  0  0  0
 22 26  1  0  0  0  0
 24 27  2  0  0  0  0
 26 28  1  0  0  0  0
 27 29  1  0  0  0  0
 29 30  1  0  0  0  0
 30 31  1  0  0  0  0
 31 32  1  0  0  0  0
 32 33  1  0  0  0  0
 32 34  1  0  0  0  0
 33 35  1  0  0  0  0
 34 36  1  0  0  0  0
 35 37  1  0  0  0  0
  9 10  1  0  0  0  0
 16 18  1  0  0  0  0
 23 26  2  0  0  0  0
 25 27  1  0  0  0  0
 36 37  1  0  0  0  0
M  END
>  <MolRegNo>
386866

>  <m>
=

>  <Value>
1.09

>  <Unit>
nM

>  <Type>
Ki

>  <pValue>
8.96

>  <Ligand Efficiency>
0.33

>  <Binding Efficiency>
17.18

>  <Surface Efficiency>
11.78

>  <Assay Index>
287641

>  <Assay Category>


>  <Assay Organism>
Homo sapiens

>  <Target ID>
19

>  <Target Name>
Estrogen receptor alpha

>  <Target Organism>
Homo sapiens

>  <Target Description>
Target is a single protein chain

>  <Sequence Accession>
P03372

>  <Reference>
Bioorg Med Chem Lett 17 (13), 3544-3549 (2007)

>  <Pubmed ID>
17482463

>  <DOI>
10.1016/j.bmcl.2007.04.044

$$$$
386865
Actelion Java MolfileCreator 1.0

 35 39  0  0  0  0  0  0  0  0999 V2000
    0.0000   -0.0000   -0.0000 S   0  0  0  0  0  0  0  0  0  0  0  0
   -0.0237    1.5166   -0.0000 O   0  0  0  0  0  0  0  0  0  0  0  0
    1.4218   -0.3673   -0.0000 O   0  0  0  0  0  0  0  0  0  0  0  0
    0.0000   -1.4810   -0.0000 C   0  0  0  0  0  0  0  0  0  0  0  0
   -1.3151    0.7464   -0.0000 C   0  0  0  0  0  0  0  0  0  0  0  0
   -1.3033   -2.2274   -0.0000 C   0  0  0  0  0  0  0  0  0  0  0  0
   -2.6066   -0.0000   -0.0000 C   0  0  0  0  0  0  0  0  0  0  0  0
   -2.6184   -1.4692   -0.0000 C   0  0  0  0  0  0  0  0  0  0  0  0
   -3.9099   -2.2156   -0.0000 C   0  0  0  0  0  0  0  0  0  0  0  0
   -5.2250   -1.4692   -0.0000 C   0  0  0  0  0  0  0  0  0  0  0  0
   -3.9099   -3.7085   -0.0000 C   0  0  0  0  0  0  0  0  0  0  0  0
   -5.2487    0.0355   -0.0000 O   0  0  0  0  0  0  0  0  0  0  0  0
   -6.5283   -2.2037   -0.0000 C   0  0  0  0  0  0  0  0  0  0  0  0
   -5.2132   -4.4430   -0.0000 C   0  0  0  0  0  0  0  0  0  0  0  0
   -6.5638    0.7820   -0.0000 C   0  0  0  0  0  0  0  0  0  0  0  0
   -6.5401   -3.6966   -0.0000 C   0  0  0  0  0  0  0  0  0  0  0  0
   -7.8434   -1.4573   -0.0000 C   0  0  0  0  0  0  0  0  0  0  0  0
   -6.5757    2.2867   -0.0000 C   0  0  0  0  0  0  0  0  0  0  0  0
   -7.8553    0.0355   -0.0000 C   0  0  0  0  0  0  0  0  0  0  0  0
   -7.8553   -4.4430   -0.0000 C   0  0  0  0  0  0  0  0  0  0  0  0
   -9.1467   -2.1919   -0.0000 C   0  0  0  0  0  0  0  0  0  0  0  0
   -7.8790    3.0331   -0.0000 C   0  0  0  0  0  0  0  0  0  0  0  0
   -9.1704    0.7820   -0.0000 C   0  0  0  0  0  0  0  0  0  0  0  0
   -9.1586   -3.6848   -0.0000 C   0  0  0  0  0  0  0  0  0  0  0  0
   -9.1823    2.2867   -0.0000 C   0  0  0  0  0  0  0  0  0  0  0  0
  -10.4619   -4.4193   -0.0000 O   0  0  0  0  0  0  0  0  0  0  0  0
  -10.4974    3.0331   -0.0000 O   0  0  0  0  0  0  0  0  0  0  0  0
  -11.8007    2.2867   -0.0000 C   0  0  0  0  0  0  0  0  0  0  0  0
  -13.1158    3.0331   -0.0000 C   0  0  0  0  0  0  0  0  0  0  0  0
  -14.4191    2.2867   -0.0000 N   0  0  0  0  0  0  0  0  0  0  0  0
  -15.7224    3.0331   -0.0000 C   0  0  0  0  0  0  0  0  0  0  0  0
  -14.4191    0.7938   -0.0000 C   0  0  0  0  0  0  0  0  0  0  0  0
  -17.0020    2.2985   -0.0000 C   0  0  0  0  0  0  0  0  0  0  0  0
  -15.7224    0.0474   -0.0000 C   0  0  0  0  0  0  0  0  0  0  0  0
  -17.0139    0.8175   -0.0000 C   0  0  0  0  0  0  0  0  0  0  0  0
  1  2  2  0  0  0  0
  1  3  2  0  0  0  0
  1  4  1  0  0  0  0
  1  5  1  0  0  0  0
  4  6  1  0  0  0  0
  5  7  1  0  0  0  0
  6  8  1  0  0  0  0
  8  9  1  0  0  0  0
  9 10  2  0  0  0  0
  9 11  1  0  0  0  0
 10 12  1  0  0  0  0
 10 13  1  0  0  0  0
 11 14  2  0  0  0  0
 12 15  1  0  0  0  0
 13 16  1  0  0  0  0
 13 17  2  0  0  0  0
 15 18  2  0  0  0  0
 15 19  1  0  0  0  0
 16 20  2  0  0  0  0
 17 21  1  0  0  0  0
 18 22  1  0  0  0  0
 19 23  2  0  0  0  0
 20 24  1  0  0  0  0
 22 25  2  0  0  0  0
 24 26  1  0  0  0  0
 25 27  1  0  0  0  0
 27 28  1  0  0  0  0
 28 29  1  0  0  0  0
 29 30  1  0  0  0  0
 30 31  1  0  0  0  0
 30 32  1  0  0  0  0
 31 33  1  0  0  0  0
 32 34  1  0  0  0  0
 33 35  1  0  0  0  0
  7  8  1  0  0  0  0
 14 16  1  0  0  0  0
 21 24  2  0  0  0  0
 23 25  1  0  0  0  0
 34 35  1  0  0  0  0
M  END
>  <MolRegNo>
386865

>  <m>
=

>  <Value>
1.89

>  <Unit>
nM

>  <Type>
Ki

>  <pValue>
8.72

>  <Ligand Efficiency>
0.34

>  <Binding Efficiency>
17.6

>  <Surface Efficiency>
11.47

>  <Assay Index>
287641

>  <Assay Category>


>  <Assay Organism>
Homo sapiens

>  <Target ID>
19

>  <Target Name>
Estrogen receptor alpha

>  <Target Organism>
Homo sapiens

>  <Target Description>
Target is a single protein chain

>  <Sequence Accession>
P03372

>  <Reference>
Bioorg Med Chem Lett 17 (13), 3544-3549 (2007)

>  <Pubmed ID>
17482463

>  <DOI>
10.1016/j.bmcl.2007.04.044

$$$$
386864
Actelion Java MolfileCreator 1.0

 35 39  0  0  0  0  0  0  0  0999 V2000
    0.0000   -0.0000   -0.0000 S   0  0  0  0  0  0  0  0  0  0  0  0
   -0.0237    1.5167   -0.0000 O   0  0  0  0  0  0  0  0  0  0  0  0
    1.4219   -0.3673   -0.0000 O   0  0  0  0  0  0  0  0  0  0  0  0
   -1.3152    0.7465   -0.0000 C   0  0  0  0  0  0  0  0  0  0  0  0
    0.0000   -1.4811   -0.0000 C   0  0  0  0  0  0  0  0  0  0  0  0
   -2.6068   -0.0000   -0.0000 C   0  0  0  0  0  0  0  0  0  0  0  0
   -1.3034   -2.2276   -0.0000 C   0  0  0  0  0  0  0  0  0  0  0  0
   -2.6068   -1.4811   -0.0000 C   0  0  0  0  0  0  0  0  0  0  0  0
   -3.8983   -2.2276   -0.0000 C   0  0  0  0  0  0  0  0  0  0  0  0
   -5.2136   -1.4811   -0.0000 C   0  0  0  0  0  0  0  0  0  0  0  0
   -3.8983   -3.7206   -0.0000 C   0  0  0  0  0  0  0  0  0  0  0  0
   -5.2373    0.0237   -0.0000 O   0  0  0  0  0  0  0  0  0  0  0  0
   -6.5169   -2.2158   -0.0000 C   0  0  0  0  0  0  0  0  0  0  0  0
   -5.2017   -4.4552   -0.0000 C   0  0  0  0  0  0  0  0  0  0  0  0
   -6.5525    0.7702   -0.0000 C   0  0  0  0  0  0  0  0  0  0  0  0
   -6.5288   -3.7087   -0.0000 C   0  0  0  0  0  0  0  0  0  0  0  0
   -7.8322   -1.4693   -0.0000 C   0  0  0  0  0  0  0  0  0  0  0  0
   -6.5643    2.2750   -0.0000 C   0  0  0  0  0  0  0  0  0  0  0  0
   -7.8440    0.0237   -0.0000 C   0  0  0  0  0  0  0  0  0  0  0  0
   -7.8440   -4.4552   -0.0000 C   0  0  0  0  0  0  0  0  0  0  0  0
   -9.1356   -2.2039   -0.0000 C   0  0  0  0  0  0  0  0  0  0  0  0
   -7.8677    3.0215   -0.0000 C   0  0  0  0  0  0  0  0  0  0  0  0
   -9.1593    0.7702   -0.0000 C   0  0  0  0  0  0  0  0  0  0  0  0
   -9.1474   -3.6969   -0.0000 C   0  0  0  0  0  0  0  0  0  0  0  0
   -9.1711    2.2750   -0.0000 C   0  0  0  0  0  0  0  0  0  0  0  0
  -10.4508   -4.4315   -0.0000 O   0  0  0  0  0  0  0  0  0  0  0  0
  -10.4863    3.0215   -0.0000 O   0  0  0  0  0  0  0  0  0  0  0  0
  -11.7897    2.2750   -0.0000 C   0  0  0  0  0  0  0  0  0  0  0  0
  -13.1050    3.0215   -0.0000 C   0  0  0  0  0  0  0  0  0  0  0  0
  -14.4084    2.2750   -0.0000 N   0  0  0  0  0  0  0  0  0  0  0  0
  -15.7118    3.0215   -0.0000 C   0  0  0  0  0  0  0  0  0  0  0  0
  -14.4084    0.7820   -0.0000 C   0  0  0  0  0  0  0  0  0  0  0  0
  -16.9914    2.2869   -0.0000 C   0  0  0  0  0  0  0  0  0  0  0  0
  -15.7118    0.0355   -0.0000 C   0  0  0  0  0  0  0  0  0  0  0  0
  -17.0033    0.8057   -0.0000 C   0  0  0  0  0  0  0  0  0  0  0  0
  1  2  2  0  0  0  0
  1  3  2  0  0  0  0
  1  4  1  0  0  0  0
  1  5  1  0  0  0  0
  4  6  1  0  0  0  0
  5  7  1  0  0  0  0
  6  8  2  0  0  0  0
  8  9  1  0  0  0  0
  9 10  2  0  0  0  0
  9 11  1  0  0  0  0
 10 12  1  0  0  0  0
 10 13  1  0  0  0  0
 11 14  2  0  0  0  0
 12 15  1  0  0  0  0
 13 16  1  0  0  0  0
 13 17  2  0  0  0  0
 15 18  2  0  0  0  0
 15 19  1  0  0  0  0
 16 20  2  0  0  0  0
 17 21  1  0  0  0  0
 18 22  1  0  0  0  0
 19 23  2  0  0  0  0
 20 24  1  0  0  0  0
 22 25  2  0  0  0  0
 24 26  1  0  0  0  0
 25 27  1  0  0  0  0
 27 28  1  0  0  0  0
 28 29  1  0  0  0  0
 29 30  1  0  0  0  0
 30 31  1  0  0  0  0
 30 32  1  0  0  0  0
 31 33  1  0  0  0  0
 32 34  1  0  0  0  0
 33 35  1  0  0  0  0
  7  8  1  0  0  0  0
 14 16  1  0  0  0  0
 21 24  2  0  0  0  0
 23 25  1  0  0  0  0
 34 35  1  0  0  0  0
M  END
>  <MolRegNo>
386864

>  <m>
=

>  <Value>
1.03

>  <Unit>
nM

>  <Type>
Ki

>  <pValue>
8.99

>  <Ligand Efficiency>
0.35

>  <Binding Efficiency>
18.21

>  <Surface Efficiency>
11.81

>  <Assay Index>
287641

>  <Assay Category>


>  <Assay Organism>
Homo sapiens

>  <Target ID>
19

>  <Target Name>
Estrogen receptor alpha

>  <Target Organism>
Homo sapiens

>  <Target Description>
Target is a single protein chain

>  <Sequence Accession>
P03372

>  <Reference>
Bioorg Med Chem Lett 17 (13), 3544-3549 (2007)

>  <Pubmed ID>
17482463

>  <DOI>
10.1016/j.bmcl.2007.04.044

$$$$
386863
Actelion Java MolfileCreator 1.0

 35 39  0  0  0  0  0  0  0  0999 V2000
    0.0000   -0.0000   -0.0000 F   0  0  0  0  0  0  0  0  0  0  0  0
   -1.3133    0.7454   -0.0000 C   0  0  0  0  0  0  0  0  0  0  0  0
   -1.3370    2.2481   -0.0000 C   0  0  0  0  0  0  0  0  0  0  0  0
   -2.6149   -0.0000   -0.0000 C   0  0  0  0  0  0  0  0  0  0  0  0
   -0.0592    3.0172   -0.0000 F   0  0  0  0  0  0  0  0  0  0  0  0
   -2.6504    2.9935   -0.0000 C   0  0  0  0  0  0  0  0  0  0  0  0
   -3.9282    0.7572   -0.0000 C   0  0  0  0  0  0  0  0  0  0  0  0
   -3.9400    2.2481   -0.0000 C   0  0  0  0  0  0  0  0  0  0  0  0
   -5.2179    0.0118   -0.0000 C   0  0  0  0  0  0  0  0  0  0  0  0
   -6.5312    0.7572   -0.0000 C   0  0  0  0  0  0  0  0  0  0  0  0
   -5.2179   -1.4790   -0.0000 C   0  0  0  0  0  0  0  0  0  0  0  0
   -6.5549    2.2599   -0.0000 O   0  0  0  0  0  0  0  0  0  0  0  0
   -7.8328    0.0237   -0.0000 C   0  0  0  0  0  0  0  0  0  0  0  0
   -6.5194   -2.2244   -0.0000 C   0  0  0  0  0  0  0  0  0  0  0  0
   -7.8683    3.0053   -0.0000 C   0  0  0  0  0  0  0  0  0  0  0  0
   -7.8446   -1.4672   -0.0000 C   0  0  0  0  0  0  0  0  0  0  0  0
   -9.1461    0.7691   -0.0000 C   0  0  0  0  0  0  0  0  0  0  0  0
   -7.8801    4.5080   -0.0000 C   0  0  0  0  0  0  0  0  0  0  0  0
   -9.1579    2.2599   -0.0000 C   0  0  0  0  0  0  0  0  0  0  0  0
   -9.1579   -2.2126   -0.0000 C   0  0  0  0  0  0  0  0  0  0  0  0
  -10.4476    0.0355   -0.0000 C   0  0  0  0  0  0  0  0  0  0  0  0
   -9.1816    5.2534   -0.0000 C   0  0  0  0  0  0  0  0  0  0  0  0
  -10.4713    3.0053   -0.0000 C   0  0  0  0  0  0  0  0  0  0  0  0
  -10.4595   -1.4553   -0.0000 C   0  0  0  0  0  0  0  0  0  0  0  0
  -10.4831    4.5080   -0.0000 C   0  0  0  0  0  0  0  0  0  0  0  0
  -11.7610   -2.1889   -0.0000 O   0  0  0  0  0  0  0  0  0  0  0  0
  -11.7965    5.2534   -0.0000 O   0  0  0  0  0  0  0  0  0  0  0  0
  -13.0980    4.5080   -0.0000 C   0  0  0  0  0  0  0  0  0  0  0  0
  -14.4113    5.2534   -0.0000 C   0  0  0  0  0  0  0  0  0  0  0  0
  -15.7128    4.5080   -0.0000 N   0  0  0  0  0  0  0  0  0  0  0  0
  -17.0144    5.2534   -0.0000 C   0  0  0  0  0  0  0  0  0  0  0  0
  -15.7128    3.0172   -0.0000 C   0  0  0  0  0  0  0  0  0  0  0  0
  -18.2922    4.5198   -0.0000 C   0  0  0  0  0  0  0  0  0  0  0  0
  -17.0144    2.2717   -0.0000 C   0  0  0  0  0  0  0  0  0  0  0  0
  -18.3040    3.0408   -0.0000 C   0  0  0  0  0  0  0  0  0  0  0  0
  1  2  1  0  0  0  0
  2  3  2  0  0  0  0
  2  4  1  0  0  0  0
  3  5  1  0  0  0  0
  3  6  1  0  0  0  0
  4  7  2  0  0  0  0
  6  8  2  0  0  0  0
  7  9  1  0  0  0  0
  9 10  2  0  0  0  0
  9 11  1  0  0  0  0
 10 12  1  0  0  0  0
 10 13  1  0  0  0  0
 11 14  2  0  0  0  0
 12 15  1  0  0  0  0
 13 16  1  0  0  0  0
 13 17  2  0  0  0  0
 15 18  2  0  0  0  0
 15 19  1  0  0  0  0
 16 20  2  0  0  0  0
 17 21  1  0  0  0  0
 18 22  1  0  0  0  0
 19 23  2  0  0  0  0
 20 24  1  0  0  0  0
 22 25  2  0  0  0  0
 24 26  1  0  0  0  0
 25 27  1  0  0  0  0
 27 28  1  0  0  0  0
 28 29  1  0  0  0  0
 29 30  1  0  0  0  0
 30 31  1  0  0  0  0
 30 32  1  0  0  0  0
 31 33  1  0  0  0  0
 32 34  1  0  0  0  0
 33 35  1  0  0  0  0
  7  8  1  0  0  0  0
 14 16  1  0  0  0  0
 21 24  2  0  0  0  0
 23 25  1  0  0  0  0
 34 35  1  0  0  0  0
M  END
>  <MolRegNo>
386863

>  <m>
=

>  <Value>
0.2

>  <Unit>
nM

>  <Type>
Ki

>  <pValue>
9.7

>  <Ligand Efficiency>
0.38

>  <Binding Efficiency>
20.4

>  <Surface Efficiency>
23.13

>  <Assay Index>
287641

>  <Assay Category>


>  <Assay Organism>
Homo sapiens

>  <Target ID>
19

>  <Target Name>
Estrogen receptor alpha

>  <Target Organism>
Homo sapiens

>  <Target Description>
Target is a single protein chain

>  <Sequence Accession>
P03372

>  <Reference>
Bioorg Med Chem Lett 17 (13), 3544-3549 (2007)

>  <Pubmed ID>
17482463

>  <DOI>
10.1016/j.bmcl.2007.04.044

$$$$
386862
Actelion Java MolfileCreator 1.0

 34 38  0  0  0  0  0  0  0  0999 V2000
    0.0000   -0.0000   -0.0000 F   0  0  0  0  0  0  0  0  0  0  0  0
   -1.3124    0.7449   -0.0000 C   0  0  0  0  0  0  0  0  0  0  0  0
   -2.6129   -0.0000   -0.0000 C   0  0  0  0  0  0  0  0  0  0  0  0
   -1.3360    2.2464   -0.0000 C   0  0  0  0  0  0  0  0  0  0  0  0
   -3.9253    0.7567   -0.0000 C   0  0  0  0  0  0  0  0  0  0  0  0
   -2.6484    2.9912   -0.0000 C   0  0  0  0  0  0  0  0  0  0  0  0
   -5.2140    0.0118   -0.0000 C   0  0  0  0  0  0  0  0  0  0  0  0
   -3.9489    2.2582   -0.0000 C   0  0  0  0  0  0  0  0  0  0  0  0
   -6.5264    0.7567   -0.0000 C   0  0  0  0  0  0  0  0  0  0  0  0
   -5.2140   -1.4779   -0.0000 C   0  0  0  0  0  0  0  0  0  0  0  0
   -6.5500    2.2582   -0.0000 O   0  0  0  0  0  0  0  0  0  0  0  0
   -7.8269    0.0236   -0.0000 C   0  0  0  0  0  0  0  0  0  0  0  0
   -6.5145   -2.2227   -0.0000 C   0  0  0  0  0  0  0  0  0  0  0  0
   -7.8624    3.0031   -0.0000 C   0  0  0  0  0  0  0  0  0  0  0  0
   -7.8387   -1.4661   -0.0000 C   0  0  0  0  0  0  0  0  0  0  0  0
   -9.1393    0.7803   -0.0000 C   0  0  0  0  0  0  0  0  0  0  0  0
   -7.8742    4.5046   -0.0000 C   0  0  0  0  0  0  0  0  0  0  0  0
   -9.1511    2.2582   -0.0000 C   0  0  0  0  0  0  0  0  0  0  0  0
   -9.1511   -2.2109   -0.0000 C   0  0  0  0  0  0  0  0  0  0  0  0
  -10.4398    0.0473   -0.0000 C   0  0  0  0  0  0  0  0  0  0  0  0
   -9.1747    5.2495   -0.0000 C   0  0  0  0  0  0  0  0  0  0  0  0
  -10.4635    3.0031   -0.0000 C   0  0  0  0  0  0  0  0  0  0  0  0
  -10.4516   -1.4542   -0.0000 C   0  0  0  0  0  0  0  0  0  0  0  0
  -10.4753    4.5046   -0.0000 C   0  0  0  0  0  0  0  0  0  0  0  0
  -11.7522   -2.1873   -0.0000 O   0  0  0  0  0  0  0  0  0  0  0  0
  -11.7876    5.2495   -0.0000 O   0  0  0  0  0  0  0  0  0  0  0  0
  -13.0882    4.5046   -0.0000 C   0  0  0  0  0  0  0  0  0  0  0  0
  -14.4006    5.2495   -0.0000 C   0  0  0  0  0  0  0  0  0  0  0  0
  -15.7011    4.5046   -0.0000 N   0  0  0  0  0  0  0  0  0  0  0  0
  -17.0016    5.2495   -0.0000 C   0  0  0  0  0  0  0  0  0  0  0  0
  -15.7011    3.0149   -0.0000 C   0  0  0  0  0  0  0  0  0  0  0  0
  -18.2785    4.5164   -0.0000 C   0  0  0  0  0  0  0  0  0  0  0  0
  -17.0016    2.2700   -0.0000 C   0  0  0  0  0  0  0  0  0  0  0  0
  -18.2904    3.0385   -0.0000 C   0  0  0  0  0  0  0  0  0  0  0  0
  1  2  1  0  0  0  0
  2  3  2  0  0  0  0
  2  4  1  0  0  0  0
  3  5  1  0  0  0  0
  4  6  2  0  0  0  0
  5  7  1  0  0  0  0
  5  8  2  0  0  0  0
  7  9  2  0  0  0  0
  7 10  1  0  0  0  0
  9 11  1  0  0  0  0
  9 12  1  0  0  0  0
 10 13  2  0  0  0  0
 11 14  1  0  0  0  0
 12 15  1  0  0  0  0
 12 16  2  0  0  0  0
 14 17  2  0  0  0  0
 14 18  1  0  0  0  0
 15 19  2  0  0  0  0
 16 20  1  0  0  0  0
 17 21  1  0  0  0  0
 18 22  2  0  0  0  0
 19 23  1  0  0  0  0
 21 24  2  0  0  0  0
 23 25  1  0  0  0  0
 24 26  1  0  0  0  0
 26 27  1  0  0  0  0
 27 28  1  0  0  0  0
 28 29  1  0  0  0  0
 29 30  1  0  0  0  0
 29 31  1  0  0  0  0
 30 32  1  0  0  0  0
 31 33  1  0  0  0  0
 32 34  1  0  0  0  0
  6  8  1  0  0  0  0
 13 15  1  0  0  0  0
 20 23  2  0  0  0  0
 22 24  1  0  0  0  0
 33 34  1  0  0  0  0
M  END
>  <MolRegNo>
386862

>  <m>
=

>  <Value>
0.18

>  <Unit>
nM

>  <Type>
Ki

>  <pValue>
9.74

>  <Ligand Efficiency>
0.39

>  <Binding Efficiency>
21.3

>  <Surface Efficiency>
23.24

>  <Assay Index>
287641

>  <Assay Category>


>  <Assay Organism>
Homo sapiens

>  <Target ID>
19

>  <Target Name>
Estrogen receptor alpha

>  <Target Organism>
Homo sapiens

>  <Target Description>
Target is a single protein chain

>  <Sequence Accession>
P03372

>  <Reference>
Bioorg Med Chem Lett 17 (13), 3544-3549 (2007)

>  <Pubmed ID>
17482463

>  <DOI>
10.1016/j.bmcl.2007.04.044

$$$$
386861
Actelion Java MolfileCreator 1.0

 34 38  0  0  0  0  0  0  0  0999 V2000
    0.0000   -0.0000   -0.0000 F   0  0  0  0  0  0  0  0  0  0  0  0
    1.0418   -0.5987   -0.0000 C   0  0  0  0  0  0  0  0  0  0  0  0
    1.0179   -2.1075   -0.0000 C   0  0  0  0  0  0  0  0  0  0  0  0
    2.3470    0.1676   -0.0000 C   0  0  0  0  0  0  0  0  0  0  0  0
    2.3231   -2.8620   -0.0000 C   0  0  0  0  0  0  0  0  0  0  0  0
    3.6523   -0.5868   -0.0000 C   0  0  0  0  0  0  0  0  0  0  0  0
    3.6283   -2.0956   -0.0000 C   0  0  0  0  0  0  0  0  0  0  0  0
    4.9336   -2.8500   -0.0000 C   0  0  0  0  0  0  0  0  0  0  0  0
    6.2508   -2.0836   -0.0000 C   0  0  0  0  0  0  0  0  0  0  0  0
    4.9216   -4.3588   -0.0000 C   0  0  0  0  0  0  0  0  0  0  0  0
    6.2388   -0.5508   -0.0000 O   0  0  0  0  0  0  0  0  0  0  0  0
    7.5560   -2.8260   -0.0000 C   0  0  0  0  0  0  0  0  0  0  0  0
    6.2388   -5.1012   -0.0000 C   0  0  0  0  0  0  0  0  0  0  0  0
    7.5441    0.2155   -0.0000 C   0  0  0  0  0  0  0  0  0  0  0  0
    7.5441   -4.3348   -0.0000 C   0  0  0  0  0  0  0  0  0  0  0  0
    8.8613   -2.0597   -0.0000 C   0  0  0  0  0  0  0  0  0  0  0  0
    8.8493   -0.5389   -0.0000 C   0  0  0  0  0  0  0  0  0  0  0  0
    7.5441    1.7483   -0.0000 C   0  0  0  0  0  0  0  0  0  0  0  0
    8.8493   -5.0773   -0.0000 C   0  0  0  0  0  0  0  0  0  0  0  0
   10.1665   -2.8021   -0.0000 C   0  0  0  0  0  0  0  0  0  0  0  0
   10.1546    0.2275   -0.0000 C   0  0  0  0  0  0  0  0  0  0  0  0
    8.8493    2.5147   -0.0000 C   0  0  0  0  0  0  0  0  0  0  0  0
   10.1546   -4.3109   -0.0000 C   0  0  0  0  0  0  0  0  0  0  0  0
   10.1546    1.7603   -0.0000 C   0  0  0  0  0  0  0  0  0  0  0  0
   11.1964   -4.9096   -0.0000 O   0  0  0  0  0  0  0  0  0  0  0  0
   11.4598    2.5267   -0.0000 O   0  0  0  0  0  0  0  0  0  0  0  0
   11.4478    4.0594   -0.0000 C   0  0  0  0  0  0  0  0  0  0  0  0
   12.7531    4.8258   -0.0000 C   0  0  0  0  0  0  0  0  0  0  0  0
   12.7411    6.3586   -0.0000 N   0  0  0  0  0  0  0  0  0  0  0  0
   11.4119    7.1369   -0.0000 C   0  0  0  0  0  0  0  0  0  0  0  0
   14.0463    7.1250   -0.0000 C   0  0  0  0  0  0  0  0  0  0  0  0
   11.3999    8.6697   -0.0000 C   0  0  0  0  0  0  0  0  0  0  0  0
   14.0344    8.6577   -0.0000 C   0  0  0  0  0  0  0  0  0  0  0  0
   12.7052    9.4361   -0.0000 C   0  0  0  0  0  0  0  0  0  0  0  0
  1  2  1  0  0  0  0
  2  3  2  0  0  0  0
  2  4  1  0  0  0  0
  3  5  1  0  0  0  0
  4  6  2  0  0  0  0
  5  7  2  0  0  0  0
  7  8  1  0  0  0  0
  8  9  2  0  0  0  0
  8 10  1  0  0  0  0
  9 11  1  0  0  0  0
  9 12  1  0  0  0  0
 10 13  2  0  0  0  0
 11 14  1  0  0  0  0
 12 15  1  0  0  0  0
 12 16  2  0  0  0  0
 14 17  2  0  0  0  0
 14 18  1  0  0  0  0
 15 19  2  0  0  0  0
 16 20  1  0  0  0  0
 17 21  1  0  0  0  0
 18 22  2  0  0  0  0
 19 23  1  0  0  0  0
 21 24  2  0  0  0  0
 23 25  1  0  0  0  0
 24 26  1  0  0  0  0
 26 27  1  0  0  0  0
 27 28  1  0  0  0  0
 28 29  1  0  0  0  0
 29 30  1  0  0  0  0
 29 31  1  0  0  0  0
 30 32  1  0  0  0  0
 31 33  1  0  0  0  0
 32 34  1  0  0  0  0
  6  7  1  0  0  0  0
 13 15  1  0  0  0  0
 20 23  2  0  0  0  0
 22 24  1  0  0  0  0
 33 34  1  0  0  0  0
M  END
>  <MolRegNo>
386861

>  <m>
=

>  <Value>
0.24

>  <Unit>
nM

>  <Type>
Ki

>  <pValue>
9.62

>  <Ligand Efficiency>
0.39

>  <Binding Efficiency>
21.02

>  <Surface Efficiency>
22.94

>  <Assay Index>
287641

>  <Assay Category>


>  <Assay Organism>
Homo sapiens

>  <Target ID>
19

>  <Target Name>
Estrogen receptor alpha

>  <Target Organism>
Homo sapiens

>  <Target Description>
Target is a single protein chain

>  <Sequence Accession>
P03372

>  <Reference>
Bioorg Med Chem Lett 17 (13), 3544-3549 (2007)

>  <Pubmed ID>
17482463

>  <DOI>
10.1016/j.bmcl.2007.04.044

$$$$
386860
Actelion Java MolfileCreator 1.0

 38 42  0  0  0  0  0  0  0  0999 V2000
    0.0000   -0.0000   -0.0000 O   0  0  0  0  0  0  0  0  0  0  0  0
    0.0000   -1.4821   -0.0000 C   0  0  0  0  0  0  0  0  0  0  0  0
    1.2924   -2.2054   -0.0000 N   0  0  0  0  0  0  0  0  0  0  0  0
   -1.3043   -2.2291   -0.0000 C   0  0  0  0  0  0  0  0  0  0  0  0
    1.2924   -3.6876   -0.0000 C   0  0  0  0  0  0  0  0  0  0  0  0
    2.5730   -1.4347   -0.0000 C   0  0  0  0  0  0  0  0  0  0  0  0
   -1.3043   -3.7113   -0.0000 C   0  0  0  0  0  0  0  0  0  0  0  0
   -2.6204   -1.4821   -0.0000 C   0  0  0  0  0  0  0  0  0  0  0  0
   -2.6086   -4.4583   -0.0000 C   0  0  0  0  0  0  0  0  0  0  0  0
   -3.9128   -2.2291   -0.0000 C   0  0  0  0  0  0  0  0  0  0  0  0
   -3.9247   -3.6994   -0.0000 C   0  0  0  0  0  0  0  0  0  0  0  0
   -5.2171   -4.4464   -0.0000 C   0  0  0  0  0  0  0  0  0  0  0  0
   -6.5333   -3.6994   -0.0000 C   0  0  0  0  0  0  0  0  0  0  0  0
   -5.2171   -5.9404   -0.0000 C   0  0  0  0  0  0  0  0  0  0  0  0
   -6.5570   -2.1936   -0.0000 O   0  0  0  0  0  0  0  0  0  0  0  0
   -7.8375   -4.4346   -0.0000 C   0  0  0  0  0  0  0  0  0  0  0  0
   -6.5214   -6.6755   -0.0000 C   0  0  0  0  0  0  0  0  0  0  0  0
   -7.8731   -1.4466   -0.0000 C   0  0  0  0  0  0  0  0  0  0  0  0
   -7.8494   -5.9286   -0.0000 C   0  0  0  0  0  0  0  0  0  0  0  0
   -9.1537   -3.6876   -0.0000 C   0  0  0  0  0  0  0  0  0  0  0  0
   -7.8850    0.0593   -0.0000 C   0  0  0  0  0  0  0  0  0  0  0  0
   -9.1655   -2.1936   -0.0000 C   0  0  0  0  0  0  0  0  0  0  0  0
   -9.1655   -6.6755   -0.0000 C   0  0  0  0  0  0  0  0  0  0  0  0
  -10.4580   -4.4227   -0.0000 C   0  0  0  0  0  0  0  0  0  0  0  0
   -9.1893    0.8063   -0.0000 C   0  0  0  0  0  0  0  0  0  0  0  0
  -10.4817   -1.4466   -0.0000 C   0  0  0  0  0  0  0  0  0  0  0  0
  -10.4698   -5.9167   -0.0000 C   0  0  0  0  0  0  0  0  0  0  0  0
  -10.4935    0.0593   -0.0000 C   0  0  0  0  0  0  0  0  0  0  0  0
  -11.7741   -6.6518   -0.0000 O   0  0  0  0  0  0  0  0  0  0  0  0
  -11.8097    0.8063   -0.0000 O   0  0  0  0  0  0  0  0  0  0  0  0
  -13.1140    0.0593   -0.0000 C   0  0  0  0  0  0  0  0  0  0  0  0
  -14.4301    0.8063   -0.0000 C   0  0  0  0  0  0  0  0  0  0  0  0
  -15.7344    0.0593   -0.0000 N   0  0  0  0  0  0  0  0  0  0  0  0
  -17.0387    0.8063   -0.0000 C   0  0  0  0  0  0  0  0  0  0  0  0
  -15.7344   -1.4347   -0.0000 C   0  0  0  0  0  0  0  0  0  0  0  0
  -18.3192    0.0711   -0.0000 C   0  0  0  0  0  0  0  0  0  0  0  0
  -17.0387   -2.1817   -0.0000 C   0  0  0  0  0  0  0  0  0  0  0  0
  -18.3311   -1.4110   -0.0000 C   0  0  0  0  0  0  0  0  0  0  0  0
  1  2  2  0  0  0  0
  2  3  1  0  0  0  0
  2  4  1  0  0  0  0
  3  5  1  0  0  0  0
  3  6  1  0  0  0  0
  4  7  2  0  0  0  0
  4  8  1  0  0  0  0
  7  9  1  0  0  0  0
  8 10  2  0  0  0  0
  9 11  2  0  0  0  0
 11 12  1  0  0  0  0
 12 13  2  0  0  0  0
 12 14  1  0  0  0  0
 13 15  1  0  0  0  0
 13 16  1  0  0  0  0
 14 17  2  0  0  0  0
 15 18  1  0  0  0  0
 16 19  1  0  0  0  0
 16 20  2  0  0  0  0
 18 21  2  0  0  0  0
 18 22  1  0  0  0  0
 19 23  2  0  0  0  0
 20 24  1  0  0  0  0
 21 25  1  0  0  0  0
 22 26  2  0  0  0  0
 23 27  1  0  0  0  0
 25 28  2  0  0  0  0
 27 29  1  0  0  0  0
 28 30  1  0  0  0  0
 30 31  1  0  0  0  0
 31 32  1  0  0  0  0
 32 33  1  0  0  0  0
 33 34  1  0  0  0  0
 33 35  1  0  0  0  0
 34 36  1  0  0  0  0
 35 37  1  0  0  0  0
 36 38  1  0  0  0  0
 10 11  1  0  0  0  0
 17 19  1  0  0  0  0
 24 27  2  0  0  0  0
 26 28  1  0  0  0  0
 37 38  1  0  0  0  0
M  END
>  <MolRegNo>
386860

>  <m>
=

>  <Value>
0.57

>  <Unit>
nM

>  <Type>
Ki

>  <pValue>
9.24

>  <Ligand Efficiency>
0.33

>  <Binding Efficiency>
18.1

>  <Surface Efficiency>
14.85

>  <Assay Index>
287641

>  <Assay Category>


>  <Assay Organism>
Homo sapiens

>  <Target ID>
19

>  <Target Name>
Estrogen receptor alpha

>  <Target Organism>
Homo sapiens

>  <Target Description>
Target is a single protein chain

>  <Sequence Accession>
P03372

>  <Reference>
Bioorg Med Chem Lett 17 (13), 3544-3549 (2007)

>  <Pubmed ID>
17482463

>  <DOI>
10.1016/j.bmcl.2007.04.044

$$$$
386859
Actelion Java MolfileCreator 1.0

 34 38  0  0  0  0  0  0  0  0999 V2000
    0.0000   -0.0000   -0.0000 O   0  0  0  0  0  0  0  0  0  0  0  0
    0.0000   -1.4832   -0.0000 C   0  0  0  0  0  0  0  0  0  0  0  0
   -1.3170    0.7475   -0.0000 C   0  0  0  0  0  0  0  0  0  0  0  0
   -1.3052   -2.2188   -0.0000 C   0  0  0  0  0  0  0  0  0  0  0  0
    1.2933   -2.2069   -0.0000 C   0  0  0  0  0  0  0  0  0  0  0  0
   -1.3289    2.2544   -0.0000 C   0  0  0  0  0  0  0  0  0  0  0  0
   -2.6104   -0.0000   -0.0000 C   0  0  0  0  0  0  0  0  0  0  0  0
   -1.3170   -3.7138   -0.0000 C   0  0  0  0  0  0  0  0  0  0  0  0
   -2.6222   -1.4713   -0.0000 C   0  0  0  0  0  0  0  0  0  0  0  0
    2.5629   -1.4357   -0.0000 C   0  0  0  0  0  0  0  0  0  0  0  0
    1.2933   -3.7020   -0.0000 C   0  0  0  0  0  0  0  0  0  0  0  0
   -2.6341    3.0019   -0.0000 C   0  0  0  0  0  0  0  0  0  0  0  0
   -3.9274    0.7475   -0.0000 C   0  0  0  0  0  0  0  0  0  0  0  0
   -2.6341   -4.4613   -0.0000 C   0  0  0  0  0  0  0  0  0  0  0  0
   -0.0356   -4.4495   -0.0000 C   0  0  0  0  0  0  0  0  0  0  0  0
   -3.9274   -2.2069   -0.0000 C   0  0  0  0  0  0  0  0  0  0  0  0
    3.8562   -2.1713   -0.0000 C   0  0  0  0  0  0  0  0  0  0  0  0
    2.5392    0.0712   -0.0000 C   0  0  0  0  0  0  0  0  0  0  0  0
   -3.9393    2.2544   -0.0000 C   0  0  0  0  0  0  0  0  0  0  0  0
   -3.9393   -3.7020   -0.0000 C   0  0  0  0  0  0  0  0  0  0  0  0
    5.1377   -1.4001   -0.0000 C   0  0  0  0  0  0  0  0  0  0  0  0
    3.8087    0.8424   -0.0000 C   0  0  0  0  0  0  0  0  0  0  0  0
   -5.2563    3.0019   -0.0000 O   0  0  0  0  0  0  0  0  0  0  0  0
   -5.2444   -4.4376   -0.0000 O   0  0  0  0  0  0  0  0  0  0  0  0
    5.1139    0.1068   -0.0000 C   0  0  0  0  0  0  0  0  0  0  0  0
   -6.5615    2.2544   -0.0000 C   0  0  0  0  0  0  0  0  0  0  0  0
    6.3954    0.8780   -0.0000 O   0  0  0  0  0  0  0  0  0  0  0  0
   -7.8785    3.0019   -0.0000 C   0  0  0  0  0  0  0  0  0  0  0  0
   -9.1837    2.2544   -0.0000 N   0  0  0  0  0  0  0  0  0  0  0  0
  -10.4889    3.0019   -0.0000 C   0  0  0  0  0  0  0  0  0  0  0  0
   -9.1837    0.7594   -0.0000 C   0  0  0  0  0  0  0  0  0  0  0  0
  -11.7703    2.2663   -0.0000 C   0  0  0  0  0  0  0  0  0  0  0  0
  -10.4889    0.0119   -0.0000 C   0  0  0  0  0  0  0  0  0  0  0  0
  -11.7822    0.7831   -0.0000 C   0  0  0  0  0  0  0  0  0  0  0  0
  1  2  1  0  0  0  0
  1  3  1  0  0  0  0
  2  4  1  0  0  0  0
  2  5  2  0  0  0  0
  3  6  2  0  0  0  0
  3  7  1  0  0  0  0
  4  8  1  0  0  0  0
  4  9  2  0  0  0  0
  5 10  1  0  0  0  0
  5 11  1  0  0  0  0
  6 12  1  0  0  0  0
  7 13  2  0  0  0  0
  8 14  2  0  0  0  0
  8 15  1  0  0  0  0
  9 16  1  0  0  0  0
 10 17  2  0  0  0  0
 10 18  1  0  0  0  0
 12 19  2  0  0  0  0
 14 20  1  0  0  0  0
 17 21  1  0  0  0  0
 18 22  2  0  0  0  0
 19 23  1  0  0  0  0
 20 24  1  0  0  0  0
 21 25  2  0  0  0  0
 23 26  1  0  0  0  0
 25 27  1  0  0  0  0
 26 28  1  0  0  0  0
 28 29  1  0  0  0  0
 29 30  1  0  0  0  0
 29 31  1  0  0  0  0
 30 32  1  0  0  0  0
 31 33  1  0  0  0  0
 32 34  1  0  0  0  0
 11 15  2  0  0  0  0
 13 19  1  0  0  0  0
 16 20  2  0  0  0  0
 22 25  1  0  0  0  0
 33 34  1  0  0  0  0
M  END
>  <MolRegNo>
386859

>  <m>
=

>  <Value>
0.32

>  <Unit>
nM

>  <Type>
Ki

>  <pValue>
9.49

>  <Ligand Efficiency>
0.38

>  <Binding Efficiency>
20.84

>  <Surface Efficiency>
15.27

>  <Assay Index>
287641

>  <Assay Category>


>  <Assay Organism>
Homo sapiens

>  <Target ID>
19

>  <Target Name>
Estrogen receptor alpha

>  <Target Organism>
Homo sapiens

>  <Target Description>
Target is a single protein chain

>  <Sequence Accession>
P03372

>  <Reference>
Bioorg Med Chem Lett 17 (13), 3544-3549 (2007)

>  <Pubmed ID>
17482463

>  <DOI>
10.1016/j.bmcl.2007.04.044

$$$$
386858
Actelion Java MolfileCreator 1.0

 34 38  0  0  0  0  0  0  0  0999 V2000
    0.0000   -0.0000   -0.0000 O   0  0  0  0  0  0  0  0  0  0  0  0
    0.0000   -1.4835   -0.0000 C   0  0  0  0  0  0  0  0  0  0  0  0
   -1.3174    0.7477   -0.0000 C   0  0  0  0  0  0  0  0  0  0  0  0
   -1.3055   -2.2193   -0.0000 C   0  0  0  0  0  0  0  0  0  0  0  0
    1.2936   -2.2075   -0.0000 C   0  0  0  0  0  0  0  0  0  0  0  0
   -1.3292    2.2549   -0.0000 C   0  0  0  0  0  0  0  0  0  0  0  0
   -2.6110   -0.0000   -0.0000 C   0  0  0  0  0  0  0  0  0  0  0  0
   -1.3174   -3.7147   -0.0000 C   0  0  0  0  0  0  0  0  0  0  0  0
   -2.6228   -1.4716   -0.0000 C   0  0  0  0  0  0  0  0  0  0  0  0
    2.5635   -1.4360   -0.0000 C   0  0  0  0  0  0  0  0  0  0  0  0
    1.2936   -3.7028   -0.0000 C   0  0  0  0  0  0  0  0  0  0  0  0
   -2.6347    3.0026   -0.0000 C   0  0  0  0  0  0  0  0  0  0  0  0
   -3.9283    0.7477   -0.0000 C   0  0  0  0  0  0  0  0  0  0  0  0
   -2.6347   -4.4624   -0.0000 C   0  0  0  0  0  0  0  0  0  0  0  0
   -0.0356   -4.4505   -0.0000 C   0  0  0  0  0  0  0  0  0  0  0  0
   -3.9283   -2.2075   -0.0000 C   0  0  0  0  0  0  0  0  0  0  0  0
    3.8571   -2.1719   -0.0000 C   0  0  0  0  0  0  0  0  0  0  0  0
    2.5398    0.0712   -0.0000 C   0  0  0  0  0  0  0  0  0  0  0  0
   -3.9402    2.2549   -0.0000 C   0  0  0  0  0  0  0  0  0  0  0  0
   -3.9402   -3.7028   -0.0000 C   0  0  0  0  0  0  0  0  0  0  0  0
    5.1389   -1.4004   -0.0000 C   0  0  0  0  0  0  0  0  0  0  0  0
    3.8097    0.8426   -0.0000 C   0  0  0  0  0  0  0  0  0  0  0  0
   -5.2576    3.0026   -0.0000 O   0  0  0  0  0  0  0  0  0  0  0  0
   -5.2457   -4.4387   -0.0000 O   0  0  0  0  0  0  0  0  0  0  0  0
    6.4325   -2.1244   -0.0000 O   0  0  0  0  0  0  0  0  0  0  0  0
    5.1151    0.1068   -0.0000 C   0  0  0  0  0  0  0  0  0  0  0  0
   -6.5630    2.2549   -0.0000 C   0  0  0  0  0  0  0  0  0  0  0  0
   -7.8804    3.0026   -0.0000 C   0  0  0  0  0  0  0  0  0  0  0  0
   -9.1859    2.2549   -0.0000 N   0  0  0  0  0  0  0  0  0  0  0  0
  -10.4914    3.0026   -0.0000 C   0  0  0  0  0  0  0  0  0  0  0  0
   -9.1859    0.7596   -0.0000 C   0  0  0  0  0  0  0  0  0  0  0  0
  -11.7731    2.2668   -0.0000 C   0  0  0  0  0  0  0  0  0  0  0  0
  -10.4914    0.0119   -0.0000 C   0  0  0  0  0  0  0  0  0  0  0  0
  -11.7850    0.7833   -0.0000 C   0  0  0  0  0  0  0  0  0  0  0  0
  1  2  1  0  0  0  0
  1  3  1  0  0  0  0
  2  4  1  0  0  0  0
  2  5  2  0  0  0  0
  3  6  2  0  0  0  0
  3  7  1  0  0  0  0
  4  8  1  0  0  0  0
  4  9  2  0  0  0  0
  5 10  1  0  0  0  0
  5 11  1  0  0  0  0
  6 12  1  0  0  0  0
  7 13  2  0  0  0  0
  8 14  2  0  0  0  0
  8 15  1  0  0  0  0
  9 16  1  0  0  0  0
 10 17  2  0  0  0  0
 10 18  1  0  0  0  0
 12 19  2  0  0  0  0
 14 20  1  0  0  0  0
 17 21  1  0  0  0  0
 18 22  2  0  0  0  0
 19 23  1  0  0  0  0
 20 24  1  0  0  0  0
 21 25  1  0  0  0  0
 21 26  2  0  0  0  0
 23 27  1  0  0  0  0
 27 28  1  0  0  0  0
 28 29  1  0  0  0  0
 29 30  1  0  0  0  0
 29 31  1  0  0  0  0
 30 32  1  0  0  0  0
 31 33  1  0  0  0  0
 32 34  1  0  0  0  0
 11 15  2  0  0  0  0
 13 19  1  0  0  0  0
 16 20  2  0  0  0  0
 22 26  1  0  0  0  0
 33 34  1  0  0  0  0
M  END
>  <MolRegNo>
386858

>  <m>
=

>  <Value>
0.21

>  <Unit>
nM

>  <Type>
Ki

>  <pValue>
9.68

>  <Ligand Efficiency>
0.39

>  <Binding Efficiency>
21.24

>  <Surface Efficiency>
15.57

>  <Assay Index>
287641

>  <Assay Category>


>  <Assay Organism>
Homo sapiens

>  <Target ID>
19

>  <Target Name>
Estrogen receptor alpha

>  <Target Organism>
Homo sapiens

>  <Target Description>
Target is a single protein chain

>  <Sequence Accession>
P03372

>  <Reference>
Bioorg Med Chem Lett 17 (13), 3544-3549 (2007)

>  <Pubmed ID>
17482463

>  <DOI>
10.1016/j.bmcl.2007.04.044

$$$$
386857
Actelion Java MolfileCreator 1.0

 35 39  0  0  0  0  0  0  0  0999 V2000
    0.0000   -0.0000   -0.0000 O   0  0  0  0  0  0  0  0  0  0  0  0
    0.0000   -1.4838   -0.0000 C   0  0  0  0  0  0  0  0  0  0  0  0
   -1.3176    0.7478   -0.0000 C   0  0  0  0  0  0  0  0  0  0  0  0
   -1.3057   -2.2197   -0.0000 C   0  0  0  0  0  0  0  0  0  0  0  0
    1.2938   -2.2078   -0.0000 C   0  0  0  0  0  0  0  0  0  0  0  0
   -1.3295    2.2553   -0.0000 C   0  0  0  0  0  0  0  0  0  0  0  0
   -2.6114   -0.0000   -0.0000 C   0  0  0  0  0  0  0  0  0  0  0  0
   -1.3176   -3.7154   -0.0000 C   0  0  0  0  0  0  0  0  0  0  0  0
   -2.6233   -1.4600   -0.0000 C   0  0  0  0  0  0  0  0  0  0  0  0
    2.5640   -1.4363   -0.0000 C   0  0  0  0  0  0  0  0  0  0  0  0
    1.2938   -3.7035   -0.0000 C   0  0  0  0  0  0  0  0  0  0  0  0
   -2.6352    3.0031   -0.0000 C   0  0  0  0  0  0  0  0  0  0  0  0
   -3.9290    0.7478   -0.0000 C   0  0  0  0  0  0  0  0  0  0  0  0
   -2.6352   -4.4632   -0.0000 C   0  0  0  0  0  0  0  0  0  0  0  0
   -0.0356   -4.4513   -0.0000 C   0  0  0  0  0  0  0  0  0  0  0  0
   -3.9290   -2.1960   -0.0000 C   0  0  0  0  0  0  0  0  0  0  0  0
    3.8578   -2.1722   -0.0000 C   0  0  0  0  0  0  0  0  0  0  0  0
    2.5402    0.0712   -0.0000 C   0  0  0  0  0  0  0  0  0  0  0  0
   -3.9409    2.2553   -0.0000 C   0  0  0  0  0  0  0  0  0  0  0  0
   -3.9409   -3.7035   -0.0000 C   0  0  0  0  0  0  0  0  0  0  0  0
    5.1398   -1.4007   -0.0000 C   0  0  0  0  0  0  0  0  0  0  0  0
    3.8103    0.8428   -0.0000 C   0  0  0  0  0  0  0  0  0  0  0  0
   -5.2585    3.0031   -0.0000 O   0  0  0  0  0  0  0  0  0  0  0  0
   -5.2466   -4.4394   -0.0000 O   0  0  0  0  0  0  0  0  0  0  0  0
    6.4217   -2.1248   -0.0000 C   0  0  0  0  0  0  0  0  0  0  0  0
    5.1160    0.1068   -0.0000 C   0  0  0  0  0  0  0  0  0  0  0  0
   -6.5642    2.2553   -0.0000 C   0  0  0  0  0  0  0  0  0  0  0  0
    7.7156   -2.8488   -0.0000 N   0  0  0  0  0  0  0  0  0  0  0  0
   -7.8818    3.0031   -0.0000 C   0  0  0  0  0  0  0  0  0  0  0  0
   -9.1875    2.2553   -0.0000 N   0  0  0  0  0  0  0  0  0  0  0  0
  -10.4932    3.0031   -0.0000 C   0  0  0  0  0  0  0  0  0  0  0  0
   -9.1875    0.7597   -0.0000 C   0  0  0  0  0  0  0  0  0  0  0  0
  -11.7752    2.2672   -0.0000 C   0  0  0  0  0  0  0  0  0  0  0  0
  -10.4932    0.0119   -0.0000 C   0  0  0  0  0  0  0  0  0  0  0  0
  -11.7871    0.7834   -0.0000 C   0  0  0  0  0  0  0  0  0  0  0  0
  1  2  1  0  0  0  0
  1  3  1  0  0  0  0
  2  4  1  0  0  0  0
  2  5  2  0  0  0  0
  3  6  2  0  0  0  0
  3  7  1  0  0  0  0
  4  8  1  0  0  0  0
  4  9  2  0  0  0  0
  5 10  1  0  0  0  0
  5 11  1  0  0  0  0
  6 12  1  0  0  0  0
  7 13  2  0  0  0  0
  8 14  2  0  0  0  0
  8 15  1  0  0  0  0
  9 16  1  0  0  0  0
 10 17  2  0  0  0  0
 10 18  1  0  0  0  0
 12 19  2  0  0  0  0
 14 20  1  0  0  0  0
 17 21  1  0  0  0  0
 18 22  2  0  0  0  0
 19 23  1  0  0  0  0
 20 24  1  0  0  0  0
 21 25  1  0  0  0  0
 21 26  2  0  0  0  0
 23 27  1  0  0  0  0
 25 28  3  0  0  0  0
 27 29  1  0  0  0  0
 29 30  1  0  0  0  0
 30 31  1  0  0  0  0
 30 32  1  0  0  0  0
 31 33  1  0  0  0  0
 32 34  1  0  0  0  0
 33 35  1  0  0  0  0
 11 15  2  0  0  0  0
 13 19  1  0  0  0  0
 16 20  2  0  0  0  0
 22 26  1  0  0  0  0
 34 35  1  0  0  0  0
M  END
>  <MolRegNo>
386857

>  <m>
=

>  <Value>
0.24

>  <Unit>
nM

>  <Type>
Ki

>  <pValue>
9.62

>  <Ligand Efficiency>
0.38

>  <Binding Efficiency>
20.71

>  <Surface Efficiency>
14.64

>  <Assay Index>
287641

>  <Assay Category>


>  <Assay Organism>
Homo sapiens

>  <Target ID>
19

>  <Target Name>
Estrogen receptor alpha

>  <Target Organism>
Homo sapiens

>  <Target Description>
Target is a single protein chain

>  <Sequence Accession>
P03372

>  <Reference>
Bioorg Med Chem Lett 17 (13), 3544-3549 (2007)

>  <Pubmed ID>
17482463

>  <DOI>
10.1016/j.bmcl.2007.04.044

$$$$
386856
Actelion Java MolfileCreator 1.0

 39 43  0  0  0  0  0  0  0  0999 V2000
    0.0000   -0.0000   -0.0000 S   0  0  0  0  0  0  0  0  0  0  0  0
    0.7462   -1.2792   -0.0000 O   0  0  0  0  0  0  0  0  0  0  0  0
   -0.7699    1.3029   -0.0000 O   0  0  0  0  0  0  0  0  0  0  0  0
   -1.3029   -0.7462   -0.0000 C   0  0  0  0  0  0  0  0  0  0  0  0
    1.2792    0.7699   -0.0000 C   0  0  0  0  0  0  0  0  0  0  0  0
   -1.3029   -2.2268   -0.0000 C   0  0  0  0  0  0  0  0  0  0  0  0
   -2.6176   -0.0000   -0.0000 C   0  0  0  0  0  0  0  0  0  0  0  0
    2.5703    0.0474   -0.0000 C   0  0  0  0  0  0  0  0  0  0  0  0
    1.2555    2.2741   -0.0000 C   0  0  0  0  0  0  0  0  0  0  0  0
   -2.6058   -2.9730   -0.0000 C   0  0  0  0  0  0  0  0  0  0  0  0
   -3.9087   -0.7462   -0.0000 C   0  0  0  0  0  0  0  0  0  0  0  0
   -3.9205   -2.2149   -0.0000 C   0  0  0  0  0  0  0  0  0  0  0  0
   -5.2116   -2.9611   -0.0000 C   0  0  0  0  0  0  0  0  0  0  0  0
   -6.5263   -2.2149   -0.0000 C   0  0  0  0  0  0  0  0  0  0  0  0
   -5.2116   -4.4535   -0.0000 C   0  0  0  0  0  0  0  0  0  0  0  0
   -6.5500   -0.7107   -0.0000 O   0  0  0  0  0  0  0  0  0  0  0  0
   -7.8292   -2.9493   -0.0000 C   0  0  0  0  0  0  0  0  0  0  0  0
   -6.5145   -5.1997   -0.0000 C   0  0  0  0  0  0  0  0  0  0  0  0
   -7.8647    0.0355   -0.0000 C   0  0  0  0  0  0  0  0  0  0  0  0
   -7.8411   -4.4417   -0.0000 C   0  0  0  0  0  0  0  0  0  0  0  0
   -9.1439   -2.1912   -0.0000 C   0  0  0  0  0  0  0  0  0  0  0  0
   -7.8766    1.5398   -0.0000 C   0  0  0  0  0  0  0  0  0  0  0  0
   -9.1558   -0.7107   -0.0000 C   0  0  0  0  0  0  0  0  0  0  0  0
   -9.1558   -5.1879   -0.0000 C   0  0  0  0  0  0  0  0  0  0  0  0
  -10.4468   -2.9256   -0.0000 C   0  0  0  0  0  0  0  0  0  0  0  0
   -9.1795    2.2860   -0.0000 C   0  0  0  0  0  0  0  0  0  0  0  0
  -10.4705    0.0355   -0.0000 C   0  0  0  0  0  0  0  0  0  0  0  0
  -10.4587   -4.4298   -0.0000 C   0  0  0  0  0  0  0  0  0  0  0  0
  -10.4824    1.5398   -0.0000 C   0  0  0  0  0  0  0  0  0  0  0  0
  -11.7616   -5.1642   -0.0000 O   0  0  0  0  0  0  0  0  0  0  0  0
  -11.7971    2.2860   -0.0000 O   0  0  0  0  0  0  0  0  0  0  0  0
  -13.1000    1.5398   -0.0000 C   0  0  0  0  0  0  0  0  0  0  0  0
  -14.4147    2.2860   -0.0000 C   0  0  0  0  0  0  0  0  0  0  0  0
  -15.7176    1.5398   -0.0000 N   0  0  0  0  0  0  0  0  0  0  0  0
  -17.0205    2.2860   -0.0000 C   0  0  0  0  0  0  0  0  0  0  0  0
  -15.7176    0.0474   -0.0000 C   0  0  0  0  0  0  0  0  0  0  0  0
  -18.2997    1.5516   -0.0000 C   0  0  0  0  0  0  0  0  0  0  0  0
  -17.0205   -0.6988   -0.0000 C   0  0  0  0  0  0  0  0  0  0  0  0
  -18.3116    0.0711   -0.0000 C   0  0  0  0  0  0  0  0  0  0  0  0
  1  2  2  0  0  0  0
  1  3  2  0  0  0  0
  1  4  1  0  0  0  0
  1  5  1  0  0  0  0
  4  6  2  0  0  0  0
  4  7  1  0  0  0  0
  5  8  1  0  0  0  0
  5  9  1  0  0  0  0
  6 10  1  0  0  0  0
  7 11  2  0  0  0  0
 10 12  2  0  0  0  0
 12 13  1  0  0  0  0
 13 14  2  0  0  0  0
 13 15  1  0  0  0  0
 14 16  1  0  0  0  0
 14 17  1  0  0  0  0
 15 18  2  0  0  0  0
 16 19  1  0  0  0  0
 17 20  1  0  0  0  0
 17 21  2  0  0  0  0
 19 22  2  0  0  0  0
 19 23  1  0  0  0  0
 20 24  2  0  0  0  0
 21 25  1  0  0  0  0
 22 26  1  0  0  0  0
 23 27  2  0  0  0  0
 24 28  1  0  0  0  0
 26 29  2  0  0  0  0
 28 30  1  0  0  0  0
 29 31  1  0  0  0  0
 31 32  1  0  0  0  0
 32 33  1  0  0  0  0
 33 34  1  0  0  0  0
 34 35  1  0  0  0  0
 34 36  1  0  0  0  0
 35 37  1  0  0  0  0
 36 38  1  0  0  0  0
 37 39  1  0  0  0  0
 11 12  1  0  0  0  0
 18 20  1  0  0  0  0
 25 28  2  0  0  0  0
 27 29  1  0  0  0  0
 38 39  1  0  0  0  0
M  END
>  <MolRegNo>
386856

>  <m>
=

>  <Value>
0.73

>  <Unit>
nM

>  <Type>
Ki

>  <pValue>
9.14

>  <Ligand Efficiency>
0.32

>  <Binding Efficiency>
16.74

>  <Surface Efficiency>
12.01

>  <Assay Index>
287641

>  <Assay Category>


>  <Assay Organism>
Homo sapiens

>  <Target ID>
19

>  <Target Name>
Estrogen receptor alpha

>  <Target Organism>
Homo sapiens

>  <Target Description>
Target is a single protein chain

>  <Sequence Accession>
P03372

>  <Reference>
Bioorg Med Chem Lett 17 (13), 3544-3549 (2007)

>  <Pubmed ID>
17482463

>  <DOI>
10.1016/j.bmcl.2007.04.044

$$$$
386855
Actelion Java MolfileCreator 1.0

 38 42  0  0  0  0  0  0  0  0999 V2000
    0.0000   -0.0000   -0.0000 S   0  0  0  0  0  0  0  0  0  0  0  0
    0.7463   -1.2793   -0.0000 O   0  0  0  0  0  0  0  0  0  0  0  0
   -0.7699    1.3030   -0.0000 O   0  0  0  0  0  0  0  0  0  0  0  0
   -1.3030   -0.7463   -0.0000 C   0  0  0  0  0  0  0  0  0  0  0  0
    1.2793    0.7699   -0.0000 C   0  0  0  0  0  0  0  0  0  0  0  0
   -1.3030   -2.2269   -0.0000 C   0  0  0  0  0  0  0  0  0  0  0  0
   -2.6178   -0.0000   -0.0000 C   0  0  0  0  0  0  0  0  0  0  0  0
    2.5704    0.0474   -0.0000 C   0  0  0  0  0  0  0  0  0  0  0  0
   -2.6060   -2.9732   -0.0000 C   0  0  0  0  0  0  0  0  0  0  0  0
   -3.9090   -0.7463   -0.0000 C   0  0  0  0  0  0  0  0  0  0  0  0
   -3.9208   -2.2151   -0.0000 C   0  0  0  0  0  0  0  0  0  0  0  0
   -5.2119   -2.9613   -0.0000 C   0  0  0  0  0  0  0  0  0  0  0  0
   -6.5268   -2.2151   -0.0000 C   0  0  0  0  0  0  0  0  0  0  0  0
   -5.2119   -4.4538   -0.0000 C   0  0  0  0  0  0  0  0  0  0  0  0
   -6.5505   -0.7107   -0.0000 O   0  0  0  0  0  0  0  0  0  0  0  0
   -7.8298   -2.9495   -0.0000 C   0  0  0  0  0  0  0  0  0  0  0  0
   -6.5149   -5.2001   -0.0000 C   0  0  0  0  0  0  0  0  0  0  0  0
   -7.8653    0.0355   -0.0000 C   0  0  0  0  0  0  0  0  0  0  0  0
   -7.8416   -4.4420   -0.0000 C   0  0  0  0  0  0  0  0  0  0  0  0
   -9.1446   -2.1914   -0.0000 C   0  0  0  0  0  0  0  0  0  0  0  0
   -7.8771    1.5399   -0.0000 C   0  0  0  0  0  0  0  0  0  0  0  0
   -9.1564   -0.7107   -0.0000 C   0  0  0  0  0  0  0  0  0  0  0  0
   -9.1564   -5.1883   -0.0000 C   0  0  0  0  0  0  0  0  0  0  0  0
  -10.4476   -2.9258   -0.0000 C   0  0  0  0  0  0  0  0  0  0  0  0
   -9.1801    2.2861   -0.0000 C   0  0  0  0  0  0  0  0  0  0  0  0
  -10.4713    0.0355   -0.0000 C   0  0  0  0  0  0  0  0  0  0  0  0
  -10.4594   -4.4302   -0.0000 C   0  0  0  0  0  0  0  0  0  0  0  0
  -10.4831    1.5399   -0.0000 C   0  0  0  0  0  0  0  0  0  0  0  0
  -11.7624   -5.1646   -0.0000 O   0  0  0  0  0  0  0  0  0  0  0  0
  -11.7979    2.2861   -0.0000 O   0  0  0  0  0  0  0  0  0  0  0  0
  -13.1009    1.5399   -0.0000 C   0  0  0  0  0  0  0  0  0  0  0  0
  -14.4158    2.2861   -0.0000 C   0  0  0  0  0  0  0  0  0  0  0  0
  -15.7187    1.5399   -0.0000 N   0  0  0  0  0  0  0  0  0  0  0  0
  -17.0217    2.2861   -0.0000 C   0  0  0  0  0  0  0  0  0  0  0  0
  -15.7187    0.0474   -0.0000 C   0  0  0  0  0  0  0  0  0  0  0  0
  -18.3010    1.5517   -0.0000 C   0  0  0  0  0  0  0  0  0  0  0  0
  -17.0217   -0.6989   -0.0000 C   0  0  0  0  0  0  0  0  0  0  0  0
  -18.3129    0.0711   -0.0000 C   0  0  0  0  0  0  0  0  0  0  0  0
  1  2  2  0  0  0  0
  1  3  2  0  0  0  0
  1  4  1  0  0  0  0
  1  5  1  0  0  0  0
  4  6  2  0  0  0  0
  4  7  1  0  0  0  0
  5  8  1  0  0  0  0
  6  9  1  0  0  0  0
  7 10  2  0  0  0  0
  9 11  2  0  0  0  0
 11 12  1  0  0  0  0
 12 13  2  0  0  0  0
 12 14  1  0  0  0  0
 13 15  1  0  0  0  0
 13 16  1  0  0  0  0
 14 17  2  0  0  0  0
 15 18  1  0  0  0  0
 16 19  1  0  0  0  0
 16 20  2  0  0  0  0
 18 21  2  0  0  0  0
 18 22  1  0  0  0  0
 19 23  2  0  0  0  0
 20 24  1  0  0  0  0
 21 25  1  0  0  0  0
 22 26  2  0  0  0  0
 23 27  1  0  0  0  0
 25 28  2  0  0  0  0
 27 29  1  0  0  0  0
 28 30  1  0  0  0  0
 30 31  1  0  0  0  0
 31 32  1  0  0  0  0
 32 33  1  0  0  0  0
 33 34  1  0  0  0  0
 33 35  1  0  0  0  0
 34 36  1  0  0  0  0
 35 37  1  0  0  0  0
 36 38  1  0  0  0  0
 10 11  1  0  0  0  0
 17 19  1  0  0  0  0
 24 27  2  0  0  0  0
 26 28  1  0  0  0  0
 37 38  1  0  0  0  0
M  END
>  <MolRegNo>
386855

>  <m>
=

>  <Value>
1.22

>  <Unit>
nM

>  <Type>
Ki

>  <pValue>
8.91

>  <Ligand Efficiency>
0.32

>  <Binding Efficiency>
16.77

>  <Surface Efficiency>
11.72

>  <Assay Index>
287641

>  <Assay Category>


>  <Assay Organism>
Homo sapiens

>  <Target ID>
19

>  <Target Name>
Estrogen receptor alpha

>  <Target Organism>
Homo sapiens

>  <Target Description>
Target is a single protein chain

>  <Sequence Accession>
P03372

>  <Reference>
Bioorg Med Chem Lett 17 (13), 3544-3549 (2007)

>  <Pubmed ID>
17482463

>  <DOI>
10.1016/j.bmcl.2007.04.044

$$$$
386854
Actelion Java MolfileCreator 1.0

 37 41  0  0  0  0  0  0  0  0999 V2000
    0.0000   -0.0000   -0.0000 S   0  0  0  0  0  0  0  0  0  0  0  0
   -1.0747   -0.5917   -0.0000 O   0  0  0  0  0  0  0  0  0  0  0  0
    0.0000    1.2437   -0.0000 O   0  0  0  0  0  0  0  0  0  0  0  0
    1.3162   -0.7607   -0.0000 C   0  0  0  0  0  0  0  0  0  0  0  0
   -1.0747    0.6279   -0.0000 C   0  0  0  0  0  0  0  0  0  0  0  0
    1.2920   -2.2821   -0.0000 C   0  0  0  0  0  0  0  0  0  0  0  0
    2.6323    0.0121   -0.0000 C   0  0  0  0  0  0  0  0  0  0  0  0
    2.6082   -3.0428   -0.0000 C   0  0  0  0  0  0  0  0  0  0  0  0
    3.9485   -0.7486   -0.0000 C   0  0  0  0  0  0  0  0  0  0  0  0
    3.9243   -2.2701   -0.0000 C   0  0  0  0  0  0  0  0  0  0  0  0
    5.2405   -3.0308   -0.0000 C   0  0  0  0  0  0  0  0  0  0  0  0
    6.5687   -2.2580   -0.0000 C   0  0  0  0  0  0  0  0  0  0  0  0
    5.2284   -4.5522   -0.0000 C   0  0  0  0  0  0  0  0  0  0  0  0
    6.5566   -0.7124   -0.0000 O   0  0  0  0  0  0  0  0  0  0  0  0
    7.8848   -3.0066   -0.0000 C   0  0  0  0  0  0  0  0  0  0  0  0
    6.5566   -5.3008   -0.0000 C   0  0  0  0  0  0  0  0  0  0  0  0
    7.8728    0.0604   -0.0000 C   0  0  0  0  0  0  0  0  0  0  0  0
    7.8728   -4.5280   -0.0000 C   0  0  0  0  0  0  0  0  0  0  0  0
    9.2010   -2.2338   -0.0000 C   0  0  0  0  0  0  0  0  0  0  0  0
    9.1889   -0.7003   -0.0000 C   0  0  0  0  0  0  0  0  0  0  0  0
    7.8728    1.6059   -0.0000 C   0  0  0  0  0  0  0  0  0  0  0  0
    9.1889   -5.2767   -0.0000 C   0  0  0  0  0  0  0  0  0  0  0  0
   10.5171   -2.9825   -0.0000 C   0  0  0  0  0  0  0  0  0  0  0  0
   10.5051    0.0724   -0.0000 C   0  0  0  0  0  0  0  0  0  0  0  0
    9.1889    2.3787   -0.0000 C   0  0  0  0  0  0  0  0  0  0  0  0
   10.5051   -4.5039   -0.0000 C   0  0  0  0  0  0  0  0  0  0  0  0
   10.5051    1.6180   -0.0000 C   0  0  0  0  0  0  0  0  0  0  0  0
   11.5556   -5.1076   -0.0000 O   0  0  0  0  0  0  0  0  0  0  0  0
   11.8212    2.3908   -0.0000 O   0  0  0  0  0  0  0  0  0  0  0  0
   11.8091    3.9364   -0.0000 C   0  0  0  0  0  0  0  0  0  0  0  0
   13.1253    4.7092   -0.0000 C   0  0  0  0  0  0  0  0  0  0  0  0
   13.1132    6.2547   -0.0000 N   0  0  0  0  0  0  0  0  0  0  0  0
   11.7729    7.0396   -0.0000 C   0  0  0  0  0  0  0  0  0  0  0  0
   14.4294    7.0275   -0.0000 C   0  0  0  0  0  0  0  0  0  0  0  0
   11.7608    8.5852   -0.0000 C   0  0  0  0  0  0  0  0  0  0  0  0
   14.4173    8.5731   -0.0000 C   0  0  0  0  0  0  0  0  0  0  0  0
   13.0770    9.3580   -0.0000 C   0  0  0  0  0  0  0  0  0  0  0  0
  1  2  2  0  0  0  0
  1  3  2  0  0  0  0
  1  4  1  0  0  0  0
  1  5  1  0  0  0  0
  4  6  2  0  0  0  0
  4  7  1  0  0  0  0
  6  8  1  0  0  0  0
  7  9  2  0  0  0  0
  8 10  2  0  0  0  0
 10 11  1  0  0  0  0
 11 12  2  0  0  0  0
 11 13  1  0  0  0  0
 12 14  1  0  0  0  0
 12 15  1  0  0  0  0
 13 16  2  0  0  0  0
 14 17  1  0  0  0  0
 15 18  1  0  0  0  0
 15 19  2  0  0  0  0
 17 20  2  0  0  0  0
 17 21  1  0  0  0  0
 18 22  2  0  0  0  0
 19 23  1  0  0  0  0
 20 24  1  0  0  0  0
 21 25  2  0  0  0  0
 22 26  1  0  0  0  0
 24 27  2  0  0  0  0
 26 28  1  0  0  0  0
 27 29  1  0  0  0  0
 29 30  1  0  0  0  0
 30 31  1  0  0  0  0
 31 32  1  0  0  0  0
 32 33  1  0  0  0  0
 32 34  1  0  0  0  0
 33 35  1  0  0  0  0
 34 36  1  0  0  0  0
 35 37  1  0  0  0  0
  9 10  1  0  0  0  0
 16 18  1  0  0  0  0
 23 26  2  0  0  0  0
 25 27  1  0  0  0  0
 36 37  1  0  0  0  0
M  END
>  <MolRegNo>
386854

>  <m>
=

>  <Value>
0.47

>  <Unit>
nM

>  <Type>
Ki

>  <pValue>
9.33

>  <Ligand Efficiency>
0.34

>  <Binding Efficiency>
18.02

>  <Surface Efficiency>
12.26

>  <Assay Index>
287641

>  <Assay Category>


>  <Assay Organism>
Homo sapiens

>  <Target ID>
19

>  <Target Name>
Estrogen receptor alpha

>  <Target Organism>
Homo sapiens

>  <Target Description>
Target is a single protein chain

>  <Sequence Accession>
P03372

>  <Reference>
Bioorg Med Chem Lett 17 (13), 3544-3549 (2007)

>  <Pubmed ID>
17482463

>  <DOI>
10.1016/j.bmcl.2007.04.044

$$$$
386899
Actelion Java MolfileCreator 1.0

 35 39  0  0  0  0  0  0  0  0999 V2000
    0.0000   -0.0000   -0.0000 S   0  0  0  0  0  0  0  0  0  0  0  0
    0.8771    1.2326   -0.0000 C   0  0  0  0  0  0  0  0  0  0  0  0
   -1.4460    0.4741   -0.0000 C   0  0  0  0  0  0  0  0  0  0  0  0
    2.3467    1.2445   -0.0000 C   0  0  0  0  0  0  0  0  0  0  0  0
   -0.0237    2.4653   -0.0000 C   0  0  0  0  0  0  0  0  0  0  0  0
   -1.4578    1.9912   -0.0000 C   0  0  0  0  0  0  0  0  0  0  0  0
   -2.7497   -0.2607   -0.0000 C   0  0  0  0  0  0  0  0  0  0  0  0
    3.0816   -0.0356   -0.0000 C   0  0  0  0  0  0  0  0  0  0  0  0
    3.0697    2.5482   -0.0000 C   0  0  0  0  0  0  0  0  0  0  0  0
    0.4267    3.8994   -0.0000 O   0  0  0  0  0  0  0  0  0  0  0  0
   -2.7734    2.7379   -0.0000 C   0  0  0  0  0  0  0  0  0  0  0  0
   -4.0535    0.4978   -0.0000 C   0  0  0  0  0  0  0  0  0  0  0  0
    4.5631   -0.0237   -0.0000 C   0  0  0  0  0  0  0  0  0  0  0  0
    4.5513    2.5719   -0.0000 C   0  0  0  0  0  0  0  0  0  0  0  0
   -0.3911    5.1676   -0.0000 C   0  0  0  0  0  0  0  0  0  0  0  0
   -4.0653    2.0030   -0.0000 C   0  0  0  0  0  0  0  0  0  0  0  0
   -5.3572   -0.2370   -0.0000 O   0  0  0  0  0  0  0  0  0  0  0  0
    5.2980    1.2800   -0.0000 C   0  0  0  0  0  0  0  0  0  0  0  0
    0.2845    6.5069   -0.0000 C   0  0  0  0  0  0  0  0  0  0  0  0
   -1.8845    5.1083   -0.0000 C   0  0  0  0  0  0  0  0  0  0  0  0
    6.7795    1.2919   -0.0000 C   0  0  0  0  0  0  0  0  0  0  0  0
   -0.5334    7.7751   -0.0000 C   0  0  0  0  0  0  0  0  0  0  0  0
   -2.7023    6.3647   -0.0000 C   0  0  0  0  0  0  0  0  0  0  0  0
    7.5143    0.0119   -0.0000 C   0  0  0  0  0  0  0  0  0  0  0  0
    7.5143    2.5956   -0.0000 C   0  0  0  0  0  0  0  0  0  0  0  0
   -2.0386    7.7158   -0.0000 C   0  0  0  0  0  0  0  0  0  0  0  0
   -2.8564    8.9840   -0.0000 O   0  0  0  0  0  0  0  0  0  0  0  0
   -4.3616    8.9247   -0.0000 C   0  0  0  0  0  0  0  0  0  0  0  0
   -5.1794   10.1929   -0.0000 C   0  0  0  0  0  0  0  0  0  0  0  0
   -6.6847   10.1337   -0.0000 N   0  0  0  0  0  0  0  0  0  0  0  0
   -7.5143   11.4019   -0.0000 C   0  0  0  0  0  0  0  0  0  0  0  0
   -7.3840    8.8181   -0.0000 C   0  0  0  0  0  0  0  0  0  0  0  0
   -9.0077   11.3426   -0.0000 C   0  0  0  0  0  0  0  0  0  0  0  0
   -8.8892    8.7588   -0.0000 C   0  0  0  0  0  0  0  0  0  0  0  0
   -9.7070   10.0270   -0.0000 C   0  0  0  0  0  0  0  0  0  0  0  0
  1  2  1  0  0  0  0
  1  3  1  0  0  0  0
  2  4  1  0  0  0  0
  2  5  2  0  0  0  0
  3  6  2  0  0  0  0
  3  7  1  0  0  0  0
  4  8  2  0  0  0  0
  4  9  1  0  0  0  0
  5 10  1  0  0  0  0
  6 11  1  0  0  0  0
  7 12  2  0  0  0  0
  8 13  1  0  0  0  0
  9 14  2  0  0  0  0
 10 15  1  0  0  0  0
 11 16  2  0  0  0  0
 12 17  1  0  0  0  0
 13 18  2  0  0  0  0
 15 19  2  0  0  0  0
 15 20  1  0  0  0  0
 18 21  1  0  0  0  0
 19 22  1  0  0  0  0
 20 23  2  0  0  0  0
 21 24  1  0  0  0  0
 21 25  1  0  0  0  0
 22 26  2  0  0  0  0
 26 27  1  0  0  0  0
 27 28  1  0  0  0  0
 28 29  1  0  0  0  0
 29 30  1  0  0  0  0
 30 31  1  0  0  0  0
 30 32  1  0  0  0  0
 31 33  1  0  0  0  0
 32 34  1  0  0  0  0
 33 35  1  0  0  0  0
  5  6  1  0  0  0  0
 12 16  1  0  0  0  0
 14 18  1  0  0  0  0
 23 26  1  0  0  0  0
 34 35  1  0  0  0  0
M  END
>  <MolRegNo>
386899

>  <m>
=

>  <Value>
0.091

>  <Unit>
nM

>  <Type>
Ki

>  <pValue>
10.04

>  <Ligand Efficiency>
0.39

>  <Binding Efficiency>
20.59

>  <Surface Efficiency>
23.95

>  <Assay Index>
287641

>  <Assay Category>


>  <Assay Organism>
Homo sapiens

>  <Target ID>
19

>  <Target Name>
Estrogen receptor alpha

>  <Target Organism>
Homo sapiens

>  <Target Description>
Target is a single protein chain

>  <Sequence Accession>
P03372

>  <Reference>
Bioorg Med Chem Lett 17 (13), 3544-3549 (2007)

>  <Pubmed ID>
17482463

>  <DOI>
10.1016/j.bmcl.2007.04.044

$$$$
386900
Actelion Java MolfileCreator 1.0

 37 41  0  0  0  0  0  0  0  0999 V2000
    0.0000   -0.0000   -0.0000 S   0  0  0  0  0  0  0  0  0  0  0  0
   -0.0118    1.5062   -0.0000 O   0  0  0  0  0  0  0  0  0  0  0  0
    0.0000   -1.4827   -0.0000 O   0  0  0  0  0  0  0  0  0  0  0  0
   -1.5062    0.0118   -0.0000 C   0  0  0  0  0  0  0  0  0  0  0  0
    1.4709    0.0118   -0.0000 C   0  0  0  0  0  0  0  0  0  0  0  0
   -2.2593   -1.2709   -0.0000 C   0  0  0  0  0  0  0  0  0  0  0  0
   -2.2711    1.3179   -0.0000 C   0  0  0  0  0  0  0  0  0  0  0  0
    2.2005   -1.2709   -0.0000 C   0  0  0  0  0  0  0  0  0  0  0  0
   -3.7655   -1.2591   -0.0000 C   0  0  0  0  0  0  0  0  0  0  0  0
   -3.7655    1.3179   -0.0000 C   0  0  0  0  0  0  0  0  0  0  0  0
   -4.5186    0.0471   -0.0000 C   0  0  0  0  0  0  0  0  0  0  0  0
   -6.0130    0.0588   -0.0000 C   0  0  0  0  0  0  0  0  0  0  0  0
   -6.9073   -1.1414   -0.0000 S   0  0  0  0  0  0  0  0  0  0  0  0
   -6.9073    1.2826   -0.0000 C   0  0  0  0  0  0  0  0  0  0  0  0
   -8.3547   -0.6707   -0.0000 C   0  0  0  0  0  0  0  0  0  0  0  0
   -6.4602    2.7182   -0.0000 O   0  0  0  0  0  0  0  0  0  0  0  0
   -8.3429    0.8237   -0.0000 C   0  0  0  0  0  0  0  0  0  0  0  0
   -9.6608   -1.4003   -0.0000 C   0  0  0  0  0  0  0  0  0  0  0  0
   -7.2839    3.9891   -0.0000 C   0  0  0  0  0  0  0  0  0  0  0  0
   -9.6491    1.5768   -0.0000 C   0  0  0  0  0  0  0  0  0  0  0  0
  -10.9670   -0.6472   -0.0000 C   0  0  0  0  0  0  0  0  0  0  0  0
   -6.6131    5.3305   -0.0000 C   0  0  0  0  0  0  0  0  0  0  0  0
   -8.7783    3.9302   -0.0000 C   0  0  0  0  0  0  0  0  0  0  0  0
  -10.9435    0.8472   -0.0000 C   0  0  0  0  0  0  0  0  0  0  0  0
  -12.2731   -1.3768   -0.0000 O   0  0  0  0  0  0  0  0  0  0  0  0
   -7.4368    6.5896   -0.0000 C   0  0  0  0  0  0  0  0  0  0  0  0
   -9.6020    5.1893   -0.0000 C   0  0  0  0  0  0  0  0  0  0  0  0
   -8.9430    6.5308   -0.0000 C   0  0  0  0  0  0  0  0  0  0  0  0
   -9.7667    7.7899   -0.0000 O   0  0  0  0  0  0  0  0  0  0  0  0
  -11.2729    7.7310   -0.0000 C   0  0  0  0  0  0  0  0  0  0  0  0
  -12.0966    8.9901   -0.0000 C   0  0  0  0  0  0  0  0  0  0  0  0
  -13.6028    8.9313   -0.0000 N   0  0  0  0  0  0  0  0  0  0  0  0
  -14.4265   10.2021   -0.0000 C   0  0  0  0  0  0  0  0  0  0  0  0
  -14.2971    7.6133   -0.0000 C   0  0  0  0  0  0  0  0  0  0  0  0
  -15.9210   10.1433   -0.0000 C   0  0  0  0  0  0  0  0  0  0  0  0
  -15.8033    7.5545   -0.0000 C   0  0  0  0  0  0  0  0  0  0  0  0
  -16.6152    8.8254   -0.0000 C   0  0  0  0  0  0  0  0  0  0  0  0
  1  2  2  0  0  0  0
  1  3  2  0  0  0  0
  1  4  1  0  0  0  0
  1  5  1  0  0  0  0
  4  6  2  0  0  0  0
  4  7  1  0  0  0  0
  5  8  1  0  0  0  0
  6  9  1  0  0  0  0
  7 10  2  0  0  0  0
  9 11  2  0  0  0  0
 11 12  1  0  0  0  0
 12 13  1  0  0  0  0
 12 14  2  0  0  0  0
 13 15  1  0  0  0  0
 14 16  1  0  0  0  0
 14 17  1  0  0  0  0
 15 18  1  0  0  0  0
 16 19  1  0  0  0  0
 17 20  1  0  0  0  0
 18 21  2  0  0  0  0
 19 22  2  0  0  0  0
 19 23  1  0  0  0  0
 20 24  2  0  0  0  0
 21 25  1  0  0  0  0
 22 26  1  0  0  0  0
 23 27  2  0  0  0  0
 26 28  2  0  0  0  0
 28 29  1  0  0  0  0
 29 30  1  0  0  0  0
 30 31  1  0  0  0  0
 31 32  1  0  0  0  0
 32 33  1  0  0  0  0
 32 34  1  0  0  0  0
 33 35  1  0  0  0  0
 34 36  1  0  0  0  0
 35 37  1  0  0  0  0
 10 11  1  0  0  0  0
 15 17  2  0  0  0  0
 21 24  1  0  0  0  0
 27 28  1  0  0  0  0
 36 37  1  0  0  0  0
M  END
>  <MolRegNo>
386900

>  <m>
=

>  <Value>
0.48

>  <Unit>
nM

>  <Type>
Ki

>  <pValue>
9.32

>  <Ligand Efficiency>
0.34

>  <Binding Efficiency>
17.33

>  <Surface Efficiency>
12.25

>  <Assay Index>
287641

>  <Assay Category>


>  <Assay Organism>
Homo sapiens

>  <Target ID>
19

>  <Target Name>
Estrogen receptor alpha

>  <Target Organism>
Homo sapiens

>  <Target Description>
Target is a single protein chain

>  <Sequence Accession>
P03372

>  <Reference>
Bioorg Med Chem Lett 17 (13), 3544-3549 (2007)

>  <Pubmed ID>
17482463

>  <DOI>
10.1016/j.bmcl.2007.04.044

$$$$
396494
Actelion Java MolfileCreator 1.0

 18 20  0  0  1  0  0  0  0  0999 V2000
    0.0000   -0.0000   -0.0000 O   0  0  0  0  0  0  0  0  0  0  0  0
   -1.3212    0.7618   -0.0000 C   0  0  0  0  0  0  0  0  0  0  0  0
    1.2974    0.7737   -0.0000 C   0  0  0  0  0  0  0  0  0  0  0  0
   -1.3331    2.2734   -0.0000 C   0  0  0  0  0  0  0  0  0  0  0  0
   -2.6305    0.0238   -0.0000 C   0  0  0  0  0  0  0  0  0  0  0  0
    2.5829    0.0357   -0.0000 C   0  0  0  0  0  0  0  0  0  0  0  0
    1.2736    2.2972   -0.0000 C   0  0  0  0  0  0  0  0  0  0  0  0
   -2.6424    3.0233   -0.0000 C   0  0  0  0  0  0  0  0  0  0  0  0
   -0.0476    3.0471   -0.0000 C   0  0  0  0  0  0  0  0  0  0  0  0
   -3.9398    0.7856   -0.0000 C   0  0  0  0  0  0  0  0  0  0  0  0
    2.5710   -1.4521   -0.0000 C   0  0  0  0  0  0  0  0  0  0  0  0
    3.8565    0.7975   -0.0000 C   0  0  0  0  0  0  0  0  0  0  0  0
   -3.9398    2.2853   -0.0000 C   0  0  0  0  0  0  0  0  0  0  0  0
    3.8565   -2.1782   -0.0000 C   0  0  0  0  0  0  0  0  0  0  0  0
    5.1420    0.0714   -0.0000 C   0  0  0  0  0  0  0  0  0  0  0  0
   -5.2491    3.0471   -0.0000 O   0  0  0  0  0  0  0  0  0  0  0  0
    5.1420   -1.4164   -0.0000 C   0  0  0  0  0  0  0  0  0  0  0  0
    6.4394   -2.1425   -0.0000 O   0  0  0  0  0  0  0  0  0  0  0  0
  1  2  1  0  0  0  0
  1  3  1  0  0  0  0
  2  4  2  0  0  0  0
  2  5  1  0  0  0  0
  3  6  1  1  0  0  0
  3  7  1  0  0  0  0
  4  8  1  0  0  0  0
  4  9  1  0  0  0  0
  5 10  2  0  0  0  0
  6 11  2  0  0  0  0
  6 12  1  0  0  0  0
  8 13  2  0  0  0  0
 11 14  1  0  0  0  0
 12 15  2  0  0  0  0
 13 16  1  0  0  0  0
 14 17  2  0  0  0  0
 17 18  1  0  0  0  0
  7  9  1  0  0  0  0
 10 13  1  0  0  0  0
 15 17  1  0  0  0  0
M  END
>  <MolRegNo>
396494

>  <m>
=

>  <Value>
126

>  <Unit>
nM

>  <Type>
Ki

>  <pValue>
6.9

>  <Ligand Efficiency>
0.52

>  <Binding Efficiency>
28.48

>  <Surface Efficiency>
13.89

>  <Assay Index>
296131

>  <Assay Category>


>  <Assay Organism>
Homo sapiens

>  <Target ID>
19

>  <Target Name>
Estrogen receptor alpha

>  <Target Organism>
Homo sapiens

>  <Target Description>
Target is a single protein chain

>  <Sequence Accession>
P03372

>  <Reference>
Bioorg Med Chem Lett 17 (13), 3570-3574 (2007)

>  <Pubmed ID>
17485205

>  <DOI>
10.1016/j.bmcl.2007.04.051

$$$$
396496
Actelion Java MolfileCreator 1.0

 22 25  0  0  1  0  0  0  0  0999 V2000
    0.0000   -0.0000   -0.0000 O   0  0  0  0  0  0  0  0  0  0  0  0
   -1.3243    0.7516   -0.0000 C   0  0  0  0  0  0  0  0  0  0  0  0
    1.2885    0.7636   -0.0000 C   0  0  0  0  0  0  0  0  0  0  0  0
   -1.3363    2.2788   -0.0000 C   0  0  0  0  0  0  0  0  0  0  0  0
   -2.6367    0.0239   -0.0000 C   0  0  0  0  0  0  0  0  0  0  0  0
    2.5651    0.0358   -0.0000 C   0  0  0  0  0  0  0  0  0  0  0  0
    1.2647    2.2907   -0.0000 C   0  0  0  0  0  0  0  0  0  0  0  0
   -2.6486    3.0304   -0.0000 C   0  0  0  0  0  0  0  0  0  0  0  0
   -0.0597    3.0543   -0.0000 C   0  0  0  0  0  0  0  0  0  0  0  0
   -3.9372    0.7874   -0.0000 C   0  0  0  0  0  0  0  0  0  0  0  0
    2.5532   -1.4436   -0.0000 C   0  0  0  0  0  0  0  0  0  0  0  0
    3.8417    0.7994   -0.0000 C   0  0  0  0  0  0  0  0  0  0  0  0
    2.5532    3.0543   -0.0000 C   0  0  0  0  0  0  0  0  0  0  0  0
   -3.9491    2.2907   -0.0000 C   0  0  0  0  0  0  0  0  0  0  0  0
   -0.0835    4.5576   -0.0000 C   0  0  0  0  0  0  0  0  0  0  0  0
    3.8298   -2.1714   -0.0000 C   0  0  0  0  0  0  0  0  0  0  0  0
    5.1183    0.0716   -0.0000 C   0  0  0  0  0  0  0  0  0  0  0  0
    2.5413    4.5576   -0.0000 C   0  0  0  0  0  0  0  0  0  0  0  0
   -5.2615    3.0543   -0.0000 O   0  0  0  0  0  0  0  0  0  0  0  0
    1.2050    5.3211   -0.0000 C   0  0  0  0  0  0  0  0  0  0  0  0
    5.1064   -1.4078   -0.0000 C   0  0  0  0  0  0  0  0  0  0  0  0
    6.3949   -2.1356   -0.0000 O   0  0  0  0  0  0  0  0  0  0  0  0
  1  2  1  0  0  0  0
  1  3  1  0  0  0  0
  2  4  2  0  0  0  0
  2  5  1  0  0  0  0
  3  6  1  1  0  0  0
  3  7  1  0  0  0  0
  4  8  1  0  0  0  0
  4  9  1  0  0  0  0
  5 10  2  0  0  0  0
  6 11  2  0  0  0  0
  6 12  1  0  0  0  0
  7 13  1  1  0  0  0
  8 14  2  0  0  0  0
  9 15  1  1  0  0  0
 11 16  1  0  0  0  0
 12 17  2  0  0  0  0
 13 18  1  0  0  0  0
 14 19  1  0  0  0  0
 15 20  1  0  0  0  0
 16 21  2  0  0  0  0
 21 22  1  0  0  0  0
  7  9  1  0  0  0  0
 10 14  1  0  0  0  0
 17 21  1  0  0  0  0
 18 20  1  0  0  0  0
M  END
>  <MolRegNo>
396496

>  <m>
=

>  <Value>
2.88

>  <Unit>
nM

>  <Type>
Ki

>  <pValue>
8.54

>  <Ligand Efficiency>
0.53

>  <Binding Efficiency>
28.82

>  <Surface Efficiency>
17.19

>  <Assay Index>
296131

>  <Assay Category>


>  <Assay Organism>
Homo sapiens

>  <Target ID>
19

>  <Target Name>
Estrogen receptor alpha

>  <Target Organism>
Homo sapiens

>  <Target Description>
Target is a single protein chain

>  <Sequence Accession>
P03372

>  <Reference>
Bioorg Med Chem Lett 17 (13), 3570-3574 (2007)

>  <Pubmed ID>
17485205

>  <DOI>
10.1016/j.bmcl.2007.04.051

$$$$
396497
Actelion Java MolfileCreator 1.0

 23 26  0  0  1  0  0  0  0  0999 V2000
    0.0000   -0.0000   -0.0000 O   0  0  0  0  0  0  0  0  0  0  0  0
   -1.3156    0.7654   -0.0000 C   0  0  0  0  0  0  0  0  0  0  0  0
    1.3036    0.7774   -0.0000 C   0  0  0  0  0  0  0  0  0  0  0  0
   -1.3395    2.2963   -0.0000 C   0  0  0  0  0  0  0  0  0  0  0  0
   -2.6312    0.0239   -0.0000 C   0  0  0  0  0  0  0  0  0  0  0  0
    2.5953    0.0359   -0.0000 C   0  0  0  0  0  0  0  0  0  0  0  0
    1.2917    2.2963   -0.0000 C   0  0  0  0  0  0  0  0  0  0  0  0
   -2.6551    3.0498   -0.0000 C   0  0  0  0  0  0  0  0  0  0  0  0
   -0.0478    3.0737   -0.0000 C   0  0  0  0  0  0  0  0  0  0  0  0
   -3.9468    0.7894   -0.0000 C   0  0  0  0  0  0  0  0  0  0  0  0
    2.5834   -1.4472   -0.0000 C   0  0  0  0  0  0  0  0  0  0  0  0
    3.8751    0.8013   -0.0000 C   0  0  0  0  0  0  0  0  0  0  0  0
    2.6193    2.8465   -0.0000 C   0  0  0  0  0  0  0  0  0  0  0  0
   -3.9588    2.3083   -0.0000 C   0  0  0  0  0  0  0  0  0  0  0  0
   -0.2512    4.5568   -0.0000 C   0  0  0  0  0  0  0  0  0  0  0  0
    3.8751   -2.1767   -0.0000 C   0  0  0  0  0  0  0  0  0  0  0  0
    5.1668    0.0718   -0.0000 C   0  0  0  0  0  0  0  0  0  0  0  0
    3.0737    4.2339   -0.0000 C   0  0  0  0  0  0  0  0  0  0  0  0
   -5.2744    3.0737   -0.0000 O   0  0  0  0  0  0  0  0  0  0  0  0
    0.7774    5.6212   -0.0000 C   0  0  0  0  0  0  0  0  0  0  0  0
    5.1668   -1.4233   -0.0000 C   0  0  0  0  0  0  0  0  0  0  0  0
    2.3203    5.4538   -0.0000 C   0  0  0  0  0  0  0  0  0  0  0  0
    6.4584   -2.1528   -0.0000 O   0  0  0  0  0  0  0  0  0  0  0  0
  1  2  1  0  0  0  0
  1  3  1  0  0  0  0
  2  4  2  0  0  0  0
  2  5  1  0  0  0  0
  3  6  1  1  0  0  0
  3  7  1  0  0  0  0
  4  8  1  0  0  0  0
  4  9  1  0  0  0  0
  5 10  2  0  0  0  0
  6 11  2  0  0  0  0
  6 12  1  0  0  0  0
  7 13  1  1  0  0  0
  8 14  2  0  0  0  0
  9 15  1  1  0  0  0
 11 16  1  0  0  0  0
 12 17  2  0  0  0  0
 13 18  1  0  0  0  0
 14 19  1  0  0  0  0
 15 20  1  0  0  0  0
 16 21  2  0  0  0  0
 18 22  1  0  0  0  0
 21 23  1  0  0  0  0
  7  9  1  0  0  0  0
 10 14  1  0  0  0  0
 17 21  1  0  0  0  0
 20 22  1  0  0  0  0
M  END
>  <MolRegNo>
396497

>  <m>
=

>  <Value>
6.11

>  <Unit>
nM

>  <Type>
Ki

>  <pValue>
8.21

>  <Ligand Efficiency>
0.49

>  <Binding Efficiency>
26.46

>  <Surface Efficiency>
16.53

>  <Assay Index>
296131

>  <Assay Category>


>  <Assay Organism>
Homo sapiens

>  <Target ID>
19

>  <Target Name>
Estrogen receptor alpha

>  <Target Organism>
Homo sapiens

>  <Target Description>
Target is a single protein chain

>  <Sequence Accession>
P03372

>  <Reference>
Bioorg Med Chem Lett 17 (13), 3570-3574 (2007)

>  <Pubmed ID>
17485205

>  <DOI>
10.1016/j.bmcl.2007.04.051

$$$$
396498
Actelion Java MolfileCreator 1.0

 20 23  0  0  1  0  0  0  0  0999 V2000
    0.0000   -0.0000   -0.0000 O   0  0  0  0  0  0  0  0  0  0  0  0
   -1.3187    0.7603   -0.0000 C   0  0  0  0  0  0  0  0  0  0  0  0
    1.2830    0.7722   -0.0000 C   0  0  0  0  0  0  0  0  0  0  0  0
   -1.3424    2.2809   -0.0000 C   0  0  0  0  0  0  0  0  0  0  0  0
   -2.6255    0.0238   -0.0000 C   0  0  0  0  0  0  0  0  0  0  0  0
    2.5661    0.0356   -0.0000 C   0  0  0  0  0  0  0  0  0  0  0  0
    1.2711    2.2928   -0.0000 C   0  0  0  0  0  0  0  0  0  0  0  0
   -2.6373    3.0294   -0.0000 C   0  0  0  0  0  0  0  0  0  0  0  0
   -0.0594    3.0531   -0.0000 C   0  0  0  0  0  0  0  0  0  0  0  0
   -3.9322    0.7841   -0.0000 C   0  0  0  0  0  0  0  0  0  0  0  0
    2.5542   -1.4375   -0.0000 C   0  0  0  0  0  0  0  0  0  0  0  0
    3.8372    0.7960   -0.0000 C   0  0  0  0  0  0  0  0  0  0  0  0
    2.3760    3.3264   -0.0000 C   0  0  0  0  0  0  0  0  0  0  0  0
   -3.9322    2.3047   -0.0000 C   0  0  0  0  0  0  0  0  0  0  0  0
    0.2376    4.5381   -0.0000 C   0  0  0  0  0  0  0  0  0  0  0  0
    3.8253   -2.1621   -0.0000 C   0  0  0  0  0  0  0  0  0  0  0  0
    5.1084    0.0713   -0.0000 C   0  0  0  0  0  0  0  0  0  0  0  0
    1.7463    4.7044   -0.0000 C   0  0  0  0  0  0  0  0  0  0  0  0
   -5.2390    3.0650   -0.0000 O   0  0  0  0  0  0  0  0  0  0  0  0
    5.1084   -1.4018   -0.0000 C   0  0  0  0  0  0  0  0  0  0  0  0
  1  2  1  0  0  0  0
  1  3  1  0  0  0  0
  2  4  2  0  0  0  0
  2  5  1  0  0  0  0
  3  6  1  1  0  0  0
  3  7  1  0  0  0  0
  4  8  1  0  0  0  0
  4  9  1  0  0  0  0
  5 10  2  0  0  0  0
  6 11  2  0  0  0  0
  6 12  1  0  0  0  0
  7 13  1  1  0  0  0
  8 14  2  0  0  0  0
  9 15  1  1  0  0  0
 11 16  1  0  0  0  0
 12 17  2  0  0  0  0
 13 18  1  0  0  0  0
 14 19  1  0  0  0  0
 16 20  2  0  0  0  0
  7  9  1  0  0  0  0
 10 14  1  0  0  0  0
 15 18  1  0  0  0  0
 17 20  1  0  0  0  0
M  END
>  <MolRegNo>
396498

>  <m>
=

>  <Value>
267

>  <Unit>
nM

>  <Type>
Ki

>  <pValue>
6.57

>  <Ligand Efficiency>
0.45

>  <Binding Efficiency>
24.68

>  <Surface Efficiency>
22.31

>  <Assay Index>
296131

>  <Assay Category>


>  <Assay Organism>
Homo sapiens

>  <Target ID>
19

>  <Target Name>
Estrogen receptor alpha

>  <Target Organism>
Homo sapiens

>  <Target Description>
Target is a single protein chain

>  <Sequence Accession>
P03372

>  <Reference>
Bioorg Med Chem Lett 17 (13), 3570-3574 (2007)

>  <Pubmed ID>
17485205

>  <DOI>
10.1016/j.bmcl.2007.04.051

$$$$
396499
Actelion Java MolfileCreator 1.0

 21 24  0  0  1  0  0  0  0  0999 V2000
    0.0000   -0.0000   -0.0000 O   0  0  0  0  0  0  0  0  0  0  0  0
   -1.3080    0.7610   -0.0000 C   0  0  0  0  0  0  0  0  0  0  0  0
    1.2842    0.7729   -0.0000 C   0  0  0  0  0  0  0  0  0  0  0  0
   -1.3318    2.2830   -0.0000 C   0  0  0  0  0  0  0  0  0  0  0  0
   -2.6160    0.0238   -0.0000 C   0  0  0  0  0  0  0  0  0  0  0  0
    2.5565    0.0357   -0.0000 C   0  0  0  0  0  0  0  0  0  0  0  0
    1.2723    2.2949   -0.0000 C   0  0  0  0  0  0  0  0  0  0  0  0
   -2.6398    3.0203   -0.0000 C   0  0  0  0  0  0  0  0  0  0  0  0
   -0.0595    3.0440   -0.0000 C   0  0  0  0  0  0  0  0  0  0  0  0
   -3.9240    0.7848   -0.0000 C   0  0  0  0  0  0  0  0  0  0  0  0
    3.8288    0.8086   -0.0000 C   0  0  0  0  0  0  0  0  0  0  0  0
    2.5446   -1.4388   -0.0000 C   0  0  0  0  0  0  0  0  0  0  0  0
    2.3782    3.3175   -0.0000 C   0  0  0  0  0  0  0  0  0  0  0  0
   -3.9359    2.2949   -0.0000 C   0  0  0  0  0  0  0  0  0  0  0  0
    0.2259    4.5304   -0.0000 C   0  0  0  0  0  0  0  0  0  0  0  0
    5.1130    0.0832   -0.0000 C   0  0  0  0  0  0  0  0  0  0  0  0
    3.8288   -2.1641   -0.0000 C   0  0  0  0  0  0  0  0  0  0  0  0
    1.7479    4.6969   -0.0000 C   0  0  0  0  0  0  0  0  0  0  0  0
   -5.2319    3.0559   -0.0000 O   0  0  0  0  0  0  0  0  0  0  0  0
    6.3854    0.8561   -0.0000 O   0  0  0  0  0  0  0  0  0  0  0  0
    5.1130   -1.4031   -0.0000 C   0  0  0  0  0  0  0  0  0  0  0  0
  1  2  1  0  0  0  0
  1  3  1  0  0  0  0
  2  4  2  0  0  0  0
  2  5  1  0  0  0  0
  3  6  1  1  0  0  0
  3  7  1  0  0  0  0
  4  8  1  0  0  0  0
  4  9  1  0  0  0  0
  5 10  2  0  0  0  0
  6 11  2  0  0  0  0
  6 12  1  0  0  0  0
  7 13  1  1  0  0  0
  8 14  2  0  0  0  0
  9 15  1  1  0  0  0
 11 16  1  0  0  0  0
 12 17  2  0  0  0  0
 13 18  1  0  0  0  0
 14 19  1  0  0  0  0
 16 20  1  0  0  0  0
 16 21  2  0  0  0  0
  7  9  1  0  0  0  0
 10 14  1  0  0  0  0
 15 18  1  0  0  0  0
 17 21  1  0  0  0  0
M  END
>  <MolRegNo>
396499

>  <m>
=

>  <Value>
65

>  <Unit>
nM

>  <Type>
Ki

>  <pValue>
7.19

>  <Ligand Efficiency>
0.47

>  <Binding Efficiency>
25.46

>  <Surface Efficiency>
14.46

>  <Assay Index>
296131

>  <Assay Category>


>  <Assay Organism>
Homo sapiens

>  <Target ID>
19

>  <Target Name>
Estrogen receptor alpha

>  <Target Organism>
Homo sapiens

>  <Target Description>
Target is a single protein chain

>  <Sequence Accession>
P03372

>  <Reference>
Bioorg Med Chem Lett 17 (13), 3570-3574 (2007)

>  <Pubmed ID>
17485205

>  <DOI>
10.1016/j.bmcl.2007.04.051

$$$$
396501
Actelion Java MolfileCreator 1.0

 20 23  0  0  1  0  0  0  0  0999 V2000
    0.0000   -0.0000   -0.0000 O   0  0  0  0  0  0  0  0  0  0  0  0
   -1.3198    0.7491   -0.0000 C   0  0  0  0  0  0  0  0  0  0  0  0
    1.2842    0.7610   -0.0000 C   0  0  0  0  0  0  0  0  0  0  0  0
   -1.3436    2.2711   -0.0000 C   0  0  0  0  0  0  0  0  0  0  0  0
   -2.6278    0.0238   -0.0000 C   0  0  0  0  0  0  0  0  0  0  0  0
    2.5683    0.0357   -0.0000 C   0  0  0  0  0  0  0  0  0  0  0  0
    1.2723    2.2830   -0.0000 C   0  0  0  0  0  0  0  0  0  0  0  0
   -2.6397    3.0202   -0.0000 C   0  0  0  0  0  0  0  0  0  0  0  0
   -0.0595    3.0559   -0.0000 C   0  0  0  0  0  0  0  0  0  0  0  0
   -3.9358    0.7729   -0.0000 C   0  0  0  0  0  0  0  0  0  0  0  0
    2.5565   -1.4387   -0.0000 C   0  0  0  0  0  0  0  0  0  0  0  0
    3.8406    0.7967   -0.0000 C   0  0  0  0  0  0  0  0  0  0  0  0
    2.3781    3.3056   -0.0000 C   0  0  0  0  0  0  0  0  0  0  0  0
   -3.9358    2.2830   -0.0000 C   0  0  0  0  0  0  0  0  0  0  0  0
    0.2378    4.5422   -0.0000 C   0  0  0  0  0  0  0  0  0  0  0  0
    3.8287   -2.1760   -0.0000 C   0  0  0  0  0  0  0  0  0  0  0  0
    5.1129    0.0832   -0.0000 C   0  0  0  0  0  0  0  0  0  0  0  0
    1.7479    4.6967   -0.0000 C   0  0  0  0  0  0  0  0  0  0  0  0
    5.1129   -1.4150   -0.0000 C   0  0  0  0  0  0  0  0  0  0  0  0
    6.3971   -2.1522   -0.0000 O   0  0  0  0  0  0  0  0  0  0  0  0
  1  2  1  0  0  0  0
  1  3  1  0  0  0  0
  2  4  2  0  0  0  0
  2  5  1  0  0  0  0
  3  6  1  1  0  0  0
  3  7  1  0  0  0  0
  4  8  1  0  0  0  0
  4  9  1  0  0  0  0
  5 10  2  0  0  0  0
  6 11  2  0  0  0  0
  6 12  1  0  0  0  0
  7 13  1  1  0  0  0
  8 14  2  0  0  0  0
  9 15  1  1  0  0  0
 11 16  1  0  0  0  0
 12 17  2  0  0  0  0
 13 18  1  0  0  0  0
 16 19  2  0  0  0  0
 19 20  1  0  0  0  0
  7  9  1  0  0  0  0
 10 14  1  0  0  0  0
 15 18  1  0  0  0  0
 17 19  1  0  0  0  0
M  END
>  <MolRegNo>
396501

>  <m>
=

>  <Value>
40

>  <Unit>
nM

>  <Type>
Ki

>  <pValue>
7.4

>  <Ligand Efficiency>
0.51

>  <Binding Efficiency>
27.78

>  <Surface Efficiency>
25.11

>  <Assay Index>
296131

>  <Assay Category>


>  <Assay Organism>
Homo sapiens

>  <Target ID>
19

>  <Target Name>
Estrogen receptor alpha

>  <Target Organism>
Homo sapiens

>  <Target Description>
Target is a single protein chain

>  <Sequence Accession>
P03372

>  <Reference>
Bioorg Med Chem Lett 17 (13), 3570-3574 (2007)

>  <Pubmed ID>
17485205

>  <DOI>
10.1016/j.bmcl.2007.04.051

$$$$
396502
Actelion Java MolfileCreator 1.0

 21 24  0  0  1  0  0  0  0  0999 V2000
    0.0000   -0.0000   -0.0000 O   0  0  0  0  0  0  0  0  0  0  0  0
   -1.3108    0.7507   -0.0000 C   0  0  0  0  0  0  0  0  0  0  0  0
    1.2870    0.7627   -0.0000 C   0  0  0  0  0  0  0  0  0  0  0  0
   -1.3346    2.2761   -0.0000 C   0  0  0  0  0  0  0  0  0  0  0  0
   -2.6216    0.0238   -0.0000 C   0  0  0  0  0  0  0  0  0  0  0  0
    2.5740    0.0357   -0.0000 C   0  0  0  0  0  0  0  0  0  0  0  0
    1.2751    2.2880   -0.0000 C   0  0  0  0  0  0  0  0  0  0  0  0
   -2.6455    3.0268   -0.0000 C   0  0  0  0  0  0  0  0  0  0  0  0
   -0.0596    3.0506   -0.0000 C   0  0  0  0  0  0  0  0  0  0  0  0
   -3.9205    0.7865   -0.0000 C   0  0  0  0  0  0  0  0  0  0  0  0
    2.5620   -1.4419   -0.0000 C   0  0  0  0  0  0  0  0  0  0  0  0
    3.8371    0.7984   -0.0000 C   0  0  0  0  0  0  0  0  0  0  0  0
    2.3833    3.3247   -0.0000 C   0  0  0  0  0  0  0  0  0  0  0  0
   -2.6574    4.5283   -0.0000 O   0  0  0  0  0  0  0  0  0  0  0  0
   -3.9444    2.2880   -0.0000 C   0  0  0  0  0  0  0  0  0  0  0  0
    0.2264    4.5402   -0.0000 C   0  0  0  0  0  0  0  0  0  0  0  0
    3.8371   -2.1688   -0.0000 C   0  0  0  0  0  0  0  0  0  0  0  0
    5.1241    0.0715   -0.0000 C   0  0  0  0  0  0  0  0  0  0  0  0
    1.7398    4.7070   -0.0000 C   0  0  0  0  0  0  0  0  0  0  0  0
    5.1122   -1.4061   -0.0000 C   0  0  0  0  0  0  0  0  0  0  0  0
    6.3992   -2.1331   -0.0000 O   0  0  0  0  0  0  0  0  0  0  0  0
  1  2  1  0  0  0  0
  1  3  1  0  0  0  0
  2  4  2  0  0  0  0
  2  5  1  0  0  0  0
  3  6  1  1  0  0  0
  3  7  1  0  0  0  0
  4  8  1  0  0  0  0
  4  9  1  0  0  0  0
  5 10  2  0  0  0  0
  6 11  2  0  0  0  0
  6 12  1  0  0  0  0
  7 13  1  1  0  0  0
  8 14  1  0  0  0  0
  8 15  2  0  0  0  0
  9 16  1  1  0  0  0
 11 17  1  0  0  0  0
 12 18  2  0  0  0  0
 13 19  1  0  0  0  0
 17 20  2  0  0  0  0
 20 21  1  0  0  0  0
  7  9  1  0  0  0  0
 10 15  1  0  0  0  0
 16 19  1  0  0  0  0
 18 20  1  0  0  0  0
M  END
>  <MolRegNo>
396502

>  <m>
=

>  <Value>
0.35

>  <Unit>
nM

>  <Type>
Ki

>  <pValue>
9.46

>  <Ligand Efficiency>
0.61

>  <Binding Efficiency>
33.49

>  <Surface Efficiency>
19.03

>  <Assay Index>
296131

>  <Assay Category>


>  <Assay Organism>
Homo sapiens

>  <Target ID>
19

>  <Target Name>
Estrogen receptor alpha

>  <Target Organism>
Homo sapiens

>  <Target Description>
Target is a single protein chain

>  <Sequence Accession>
P03372

>  <Reference>
Bioorg Med Chem Lett 17 (13), 3570-3574 (2007)

>  <Pubmed ID>
17485205

>  <DOI>
10.1016/j.bmcl.2007.04.051

$$$$
396503
Actelion Java MolfileCreator 1.0

 21 24  0  0  1  0  0  0  0  0999 V2000
    0.0000   -0.0000   -0.0000 O   0  0  0  0  0  0  0  0  0  0  0  0
   -1.3068    0.7485   -0.0000 C   0  0  0  0  0  0  0  0  0  0  0  0
    1.2950    0.7603   -0.0000 C   0  0  0  0  0  0  0  0  0  0  0  0
   -1.3306    2.2691   -0.0000 C   0  0  0  0  0  0  0  0  0  0  0  0
   -2.6137    0.0238   -0.0000 C   0  0  0  0  0  0  0  0  0  0  0  0
    2.5662    0.0356   -0.0000 C   0  0  0  0  0  0  0  0  0  0  0  0
    1.2831    2.2810   -0.0000 C   0  0  0  0  0  0  0  0  0  0  0  0
   -2.6374    3.0176   -0.0000 C   0  0  0  0  0  0  0  0  0  0  0  0
   -0.0594    3.0533   -0.0000 C   0  0  0  0  0  0  0  0  0  0  0  0
   -3.9205    0.7722   -0.0000 C   0  0  0  0  0  0  0  0  0  0  0  0
    2.5543   -1.4375   -0.0000 C   0  0  0  0  0  0  0  0  0  0  0  0
    3.8374    0.7960   -0.0000 C   0  0  0  0  0  0  0  0  0  0  0  0
    2.3880    3.3146   -0.0000 C   0  0  0  0  0  0  0  0  0  0  0  0
   -3.9324    2.2810   -0.0000 C   0  0  0  0  0  0  0  0  0  0  0  0
    0.2376    4.5383   -0.0000 C   0  0  0  0  0  0  0  0  0  0  0  0
   -5.2274    0.0475   -0.0000 O   0  0  0  0  0  0  0  0  0  0  0  0
    3.8374   -2.1741   -0.0000 C   0  0  0  0  0  0  0  0  0  0  0  0
    5.1204    0.0832   -0.0000 C   0  0  0  0  0  0  0  0  0  0  0  0
    1.7464    4.7046   -0.0000 C   0  0  0  0  0  0  0  0  0  0  0  0
    5.1204   -1.4138   -0.0000 C   0  0  0  0  0  0  0  0  0  0  0  0
    6.4035   -2.1503   -0.0000 O   0  0  0  0  0  0  0  0  0  0  0  0
  1  2  1  0  0  0  0
  1  3  1  0  0  0  0
  2  4  2  0  0  0  0
  2  5  1  0  0  0  0
  3  6  1  1  0  0  0
  3  7  1  0  0  0  0
  4  8  1  0  0  0  0
  4  9  1  0  0  0  0
  5 10  2  0  0  0  0
  6 11  2  0  0  0  0
  6 12  1  0  0  0  0
  7 13  1  1  0  0  0
  8 14  2  0  0  0  0
  9 15  1  1  0  0  0
 10 16  1  0  0  0  0
 11 17  1  0  0  0  0
 12 18  2  0  0  0  0
 13 19  1  0  0  0  0
 17 20  2  0  0  0  0
 20 21  1  0  0  0  0
  7  9  1  0  0  0  0
 10 14  1  0  0  0  0
 15 19  1  0  0  0  0
 18 20  1  0  0  0  0
M  END
>  <MolRegNo>
396503

>  <m>
=

>  <Value>
41

>  <Unit>
nM

>  <Type>
Ki

>  <pValue>
7.39

>  <Ligand Efficiency>
0.48

>  <Binding Efficiency>
26.16

>  <Surface Efficiency>
14.87

>  <Assay Index>
296131

>  <Assay Category>


>  <Assay Organism>
Homo sapiens

>  <Target ID>
19

>  <Target Name>
Estrogen receptor alpha

>  <Target Organism>
Homo sapiens

>  <Target Description>
Target is a single protein chain

>  <Sequence Accession>
P03372

>  <Reference>
Bioorg Med Chem Lett 17 (13), 3570-3574 (2007)

>  <Pubmed ID>
17485205

>  <DOI>
10.1016/j.bmcl.2007.04.051

$$$$
1546511
Actelion Java MolfileCreator 1.0

157159  0  0  1  0  0  0  0  0999 V2000
    0.0000   -0.0000   -0.0000 O   0  0  0  0  0  0  0  0  0  0  0  0
    1.2637    0.8031   -0.0000 C   0  0  0  0  0  0  0  0  0  0  0  0
    2.5747    0.1063   -0.0000 N   0  0  0  0  0  0  0  0  0  0  0  0
    1.2047    2.3149   -0.0000 C   0  0  0  0  0  0  0  0  0  0  0  0
    3.8621    0.8622   -0.0000 C   0  0  0  0  0  0  0  0  0  0  0  0
   -0.0472    3.1652   -0.0000 N   0  0  0  0  0  0  0  0  0  0  0  0
    2.3857    3.2479   -0.0000 C   0  0  0  0  0  0  0  0  0  0  0  0
    5.1494    0.1299   -0.0000 C   0  0  0  0  0  0  0  0  0  0  0  0
    3.8503    2.3739   -0.0000 C   0  0  0  0  0  0  0  0  0  0  0  0
   -1.3582    2.4330   -0.0000 C   0  0  0  0  0  0  0  0  0  0  0  0
    0.3661    4.6179   -0.0000 C   0  0  0  0  0  0  0  0  0  0  0  0
    1.8661    4.6770   -0.0000 C   0  0  0  0  0  0  0  0  0  0  0  0
    5.1376   -1.3582   -0.0000 O   0  0  0  0  0  0  0  0  0  0  0  0
    6.4368    0.8858   -0.0000 N   0  0  0  0  0  0  0  0  0  0  0  0
    5.1376    3.1416   -0.0000 O   0  0  0  0  0  0  0  0  0  0  0  0
   -1.3700    0.9448   -0.0000 O   0  0  0  0  0  0  0  0  0  0  0  0
   -2.6692    3.1889   -0.0000 C   0  0  0  0  0  0  0  0  0  0  0  0
    7.7241    0.1535   -0.0000 C   0  0  0  0  0  0  0  0  0  0  0  0
   -3.9802    2.4566   -0.0000 N   0  0  0  0  0  0  0  0  0  0  0  0
   -2.6810    4.7006   -0.0000 C   0  0  0  0  0  0  0  0  0  0  0  0
    9.0115    0.9094   -0.0000 C   0  0  0  0  0  0  0  0  0  0  0  0
    7.7123   -1.3346   -0.0000 C   0  0  0  0  0  0  0  0  0  0  0  0
   -5.2911    3.2125   -0.0000 C   0  0  0  0  0  0  0  0  0  0  0  0
   -1.3937    5.4565   -0.0000 O   0  0  0  0  0  0  0  0  0  0  0  0
    8.9997    2.4212   -0.0000 O   0  0  0  0  0  0  0  0  0  0  0  0
   10.2988    0.1772   -0.0000 O   0  0  0  0  0  0  0  0  0  0  0  0
    8.9997   -2.0787   -0.0000 C   0  0  0  0  0  0  0  0  0  0  0  0
   -5.3030    4.7242   -0.0000 O   0  0  0  0  0  0  0  0  0  0  0  0
   -6.6021    2.4802   -0.0000 C   0  0  0  0  0  0  0  0  0  0  0  0
    8.9879   -3.5668   -0.0000 O   0  0  0  0  0  0  0  0  0  0  0  0
   10.2870   -1.3110   -0.0000 O   0  0  0  0  0  0  0  0  0  0  0  0
   -7.9131    3.2361   -0.0000 N   0  0  0  0  0  0  0  0  0  0  0  0
   -9.2241    2.5038   -0.0000 C   0  0  0  0  0  0  0  0  0  0  0  0
   -9.2359    1.0157   -0.0000 O   0  0  0  0  0  0  0  0  0  0  0  0
  -10.5350    3.2597   -0.0000 C   0  0  0  0  0  0  0  0  0  0  0  0
  -11.8460    2.5275   -0.0000 N   0  0  0  0  0  0  0  0  0  0  0  0
  -10.5469    4.7715   -0.0000 C   0  0  0  0  0  0  0  0  0  0  0  0
  -13.1570    3.2833   -0.0000 C   0  0  0  0  0  0  0  0  0  0  0  0
   -9.2595    5.5274   -0.0000 C   0  0  0  0  0  0  0  0  0  0  0  0
  -13.1688    4.7951   -0.0000 O   0  0  0  0  0  0  0  0  0  0  0  0
  -14.4680    2.5511   -0.0000 C   0  0  0  0  0  0  0  0  0  0  0  0
   -9.2713    7.0391   -0.0000 C   0  0  0  0  0  0  0  0  0  0  0  0
  -15.7790    3.3070   -0.0000 N   0  0  0  0  0  0  0  0  0  0  0  0
  -14.4798    1.0630   -0.0000 C   0  0  0  0  0  0  0  0  0  0  0  0
  -10.5823    7.7950   -0.0000 O   0  0  0  0  0  0  0  0  0  0  0  0
   -7.9840    7.7950   -0.0000 O   0  0  0  0  0  0  0  0  0  0  0  0
  -17.0899    2.5747   -0.0000 C   0  0  0  0  0  0  0  0  0  0  0  0
  -13.1924    0.3307   -0.0000 C   0  0  0  0  0  0  0  0  0  0  0  0
  -17.1017    1.0866   -0.0000 O   0  0  0  0  0  0  0  0  0  0  0  0
  -18.4009    3.3306   -0.0000 C   0  0  0  0  0  0  0  0  0  0  0  0
  -13.2042   -1.1574   -0.0000 C   0  0  0  0  0  0  0  0  0  0  0  0
  -19.7119    2.5983   -0.0000 N   0  0  0  0  0  0  0  0  0  0  0  0
  -18.4127    4.8423   -0.0000 C   0  0  0  0  0  0  0  0  0  0  0  0
  -14.5152   -1.8897   -0.0000 O   0  0  0  0  0  0  0  0  0  0  0  0
  -11.9169   -1.8897   -0.0000 N   0  0  0  0  0  0  0  0  0  0  0  0
  -21.0229    3.3542   -0.0000 C   0  0  0  0  0  0  0  0  0  0  0  0
  -17.1254    5.5982   -0.0000 C   0  0  0  0  0  0  0  0  0  0  0  0
  -21.0347    4.8660   -0.0000 O   0  0  0  0  0  0  0  0  0  0  0  0
  -22.3338    2.6220   -0.0000 C   0  0  0  0  0  0  0  0  0  0  0  0
  -17.1372    7.1100   -0.0000 C   0  0  0  0  0  0  0  0  0  0  0  0
  -15.8380    4.8660   -0.0000 C   0  0  0  0  0  0  0  0  0  0  0  0
  -23.6448    3.3778   -0.0000 N   0  0  0  0  0  0  0  0  0  0  0  0
  -22.3456    1.1338   -0.0000 C   0  0  0  0  0  0  0  0  0  0  0  0
  -24.9558    2.6456   -0.0000 C   0  0  0  0  0  0  0  0  0  0  0  0
  -21.0583    0.4016   -0.0000 C   0  0  0  0  0  0  0  0  0  0  0  0
  -24.9676    1.1574   -0.0000 O   0  0  0  0  0  0  0  0  0  0  0  0
  -26.2668    3.4015   -0.0000 C   0  0  0  0  0  0  0  0  0  0  0  0
  -21.0701   -1.0866   -0.0000 C   0  0  0  0  0  0  0  0  0  0  0  0
  -19.7709    1.1574   -0.0000 C   0  0  0  0  0  0  0  0  0  0  0  0
  -27.5777    2.6692   -0.0000 N   0  0  0  0  0  0  0  0  0  0  0  0
  -26.2786    4.9132   -0.0000 C   0  0  0  0  0  0  0  0  0  0  0  0
  -28.8887    3.4251   -0.0000 C   0  0  0  0  0  0  0  0  0  0  0  0
  -24.9912    5.6691   -0.0000 C   0  0  0  0  0  0  0  0  0  0  0  0
  -28.9005    4.9368   -0.0000 O   0  0  0  0  0  0  0  0  0  0  0  0
  -30.1997    2.6928   -0.0000 C   0  0  0  0  0  0  0  0  0  0  0  0
  -25.0030    7.1808   -0.0000 C   0  0  0  0  0  0  0  0  0  0  0  0
  -31.5107    3.4487   -0.0000 N   0  0  0  0  0  0  0  0  0  0  0  0
  -30.2115    1.2047   -0.0000 C   0  0  0  0  0  0  0  0  0  0  0  0
  -23.7157    7.9367   -0.0000 N   0  0  0  0  0  0  0  0  0  0  0  0
  -32.8216    2.7164   -0.0000 C   0  0  0  0  0  0  0  0  0  0  0  0
  -28.9241    0.4724   -0.0000 C   0  0  0  0  0  0  0  0  0  0  0  0
  -23.7275    9.4485   -0.0000 C   0  0  0  0  0  0  0  0  0  0  0  0
  -32.8335    1.2283   -0.0000 O   0  0  0  0  0  0  0  0  0  0  0  0
  -34.1326    3.4723   -0.0000 C   0  0  0  0  0  0  0  0  0  0  0  0
  -28.7824   -1.0039   -0.0000 N   0  0  0  0  0  0  0  0  0  0  0  0
  -27.5659    1.0866   -0.0000 C   0  0  0  0  0  0  0  0  0  0  0  0
  -25.0385   10.2044   -0.0000 N   0  0  0  0  0  0  0  0  0  0  0  0
  -22.4401   10.2044   -0.0000 N   0  0  0  0  0  0  0  0  0  0  0  0
  -35.4436    2.7401   -0.0000 N   0  0  0  0  0  0  0  0  0  0  0  0
  -34.1444    4.9841   -0.0000 C   0  0  0  0  0  0  0  0  0  0  0  0
  -27.3297   -1.3110   -0.0000 C   0  0  0  0  0  0  0  0  0  0  0  0
  -26.5738   -0.0118   -0.0000 N   0  0  0  0  0  0  0  0  0  0  0  0
  -36.7546    3.4959   -0.0000 C   0  0  0  0  0  0  0  0  0  0  0  0
  -32.8571    5.7399   -0.0000 C   0  0  0  0  0  0  0  0  0  0  0  0
  -36.7664    5.0077   -0.0000 O   0  0  0  0  0  0  0  0  0  0  0  0
  -38.0655    2.7637   -0.0000 C   0  0  0  0  0  0  0  0  0  0  0  0
  -32.8689    7.2517   -0.0000 C   0  0  0  0  0  0  0  0  0  0  0  0
  -31.5697    5.0077   -0.0000 C   0  0  0  0  0  0  0  0  0  0  0  0
  -39.3765    3.5196   -0.0000 N   0  0  0  0  0  0  0  0  0  0  0  0
  -38.0774    1.2755   -0.0000 C   0  0  0  0  0  0  0  0  0  0  0  0
  -40.6875    2.7873   -0.0000 C   0  0  0  0  0  0  0  0  0  0  0  0
  -39.3883    0.5433   -0.0000 C   0  0  0  0  0  0  0  0  0  0  0  0
  -36.7900    0.5433   -0.0000 C   0  0  0  0  0  0  0  0  0  0  0  0
  -40.6993    1.2992   -0.0000 O   0  0  0  0  0  0  0  0  0  0  0  0
  -41.9985    3.5432   -0.0000 C   0  0  0  0  0  0  0  0  0  0  0  0
  -39.4001   -0.9448   -0.0000 C   0  0  0  0  0  0  0  0  0  0  0  0
  -43.3094    2.8109   -0.0000 N   0  0  0  0  0  0  0  0  0  0  0  0
  -42.0103    5.0549   -0.0000 C   0  0  0  0  0  0  0  0  0  0  0  0
  -44.6086    3.5668   -0.0000 C   0  0  0  0  0  0  0  0  0  0  0  0
  -40.7229    5.8108   -0.0000 C   0  0  0  0  0  0  0  0  0  0  0  0
  -44.6204    5.0786   -0.0000 O   0  0  0  0  0  0  0  0  0  0  0  0
  -45.9196    2.8345   -0.0000 C   0  0  0  0  0  0  0  0  0  0  0  0
  -40.7347    7.3226   -0.0000 C   0  0  0  0  0  0  0  0  0  0  0  0
  -47.2306    3.5904   -0.0000 N   0  0  0  0  0  0  0  0  0  0  0  0
  -45.9314    1.3464   -0.0000 C   0  0  0  0  0  0  0  0  0  0  0  0
  -39.4474    8.0784   -0.0000 C   0  0  0  0  0  0  0  0  0  0  0  0
  -48.5415    2.8582   -0.0000 C   0  0  0  0  0  0  0  0  0  0  0  0
  -44.6440    0.6142   -0.0000 C   0  0  0  0  0  0  0  0  0  0  0  0
  -39.4592    9.5902   -0.0000 N   0  0  0  0  0  0  0  0  0  0  0  0
  -48.5534    1.3700   -0.0000 O   0  0  0  0  0  0  0  0  0  0  0  0
  -49.8525    3.6259   -0.0000 C   0  0  0  0  0  0  0  0  0  0  0  0
  -44.5023   -0.8622   -0.0000 N   0  0  0  0  0  0  0  0  0  0  0  0
  -43.2858    1.2283   -0.0000 C   0  0  0  0  0  0  0  0  0  0  0  0
  -51.1635    2.8818   -0.0000 N   0  0  0  0  0  0  0  0  0  0  0  0
  -49.8643    5.1376   -0.0000 C   0  0  0  0  0  0  0  0  0  0  0  0
  -43.0496   -1.1692   -0.0000 C   0  0  0  0  0  0  0  0  0  0  0  0
  -42.2937    0.1299   -0.0000 N   0  0  0  0  0  0  0  0  0  0  0  0
  -52.4745    3.6377   -0.0000 C   0  0  0  0  0  0  0  0  0  0  0  0
  -48.5770    5.8935   -0.0000 C   0  0  0  0  0  0  0  0  0  0  0  0
  -52.4863    5.1494   -0.0000 O   0  0  0  0  0  0  0  0  0  0  0  0
  -53.7854    2.9054   -0.0000 C   0  0  0  0  0  0  0  0  0  0  0  0
  -48.5888    7.4052   -0.0000 C   0  0  0  0  0  0  0  0  0  0  0  0
  -55.0964    3.6613   -0.0000 N   0  0  0  0  0  0  0  0  0  0  0  0
  -53.7973    1.4173   -0.0000 C   0  0  0  0  0  0  0  0  0  0  0  0
  -47.3014    8.1611   -0.0000 N   0  0  0  0  0  0  0  0  0  0  0  0
  -56.4074    2.9290   -0.0000 C   0  0  0  0  0  0  0  0  0  0  0  0
  -52.5099    0.6850   -0.0000 C   0  0  0  0  0  0  0  0  0  0  0  0
  -47.3132    9.6729   -0.0000 C   0  0  0  0  0  0  0  0  0  0  0  0
  -56.4192    1.4409   -0.0000 O   0  0  0  0  0  0  0  0  0  0  0  0
  -57.7184    3.6849   -0.0000 C   0  0  0  0  0  0  0  0  0  0  0  0
  -52.5217   -0.8031   -0.0000 C   0  0  0  0  0  0  0  0  0  0  0  0
  -48.6242   10.4288   -0.0000 N   0  0  0  0  0  0  0  0  0  0  0  0
  -46.0259   10.4288   -0.0000 N   0  0  0  0  0  0  0  0  0  0  0  0
  -59.0293    2.9526   -0.0000 N   0  0  0  0  0  0  0  0  0  0  0  0
  -57.7302    5.1967   -0.0000 C   0  0  0  0  0  0  0  0  0  0  0  0
  -53.8327   -1.5472   -0.0000 O   0  0  0  0  0  0  0  0  0  0  0  0
  -51.2344   -1.5472   -0.0000 O   0  0  0  0  0  0  0  0  0  0  0  0
  -60.3403    3.7085   -0.0000 C   0  0  0  0  0  0  0  0  0  0  0  0
  -56.4428    5.9644   -0.0000 O   0  0  0  0  0  0  0  0  0  0  0  0
  -59.0412    5.9644   -0.0000 C   0  0  0  0  0  0  0  0  0  0  0  0
  -60.3521    5.2203   -0.0000 O   0  0  0  0  0  0  0  0  0  0  0  0
  -61.6513    2.9763   -0.0000 C   0  0  0  0  0  0  0  0  0  0  0  0
  -62.9623    3.7321   -0.0000 N   0  0  0  0  0  0  0  0  0  0  0  0
  -61.6631    1.4881   -0.0000 C   0  0  0  0  0  0  0  0  0  0  0  0
  -60.3758    0.7559   -0.0000 C   0  0  0  0  0  0  0  0  0  0  0  0
  -60.3876   -0.7323   -0.0000 C   0  0  0  0  0  0  0  0  0  0  0  0
  -59.0884    1.5118   -0.0000 C   0  0  0  0  0  0  0  0  0  0  0  0
  1  2  2  0  0  0  0
  2  3  1  0  0  0  0
  4  2  1  1  0  0  0
  5  3  1  1  0  0  0
  4  6  1  0  0  0  0
  4  7  1  0  0  0  0
  5  8  1  0  0  0  0
  5  9  1  0  0  0  0
  6 10  1  0  0  0  0
  6 11  1  0  0  0  0
  7 12  1  0  0  0  0
  8 13  2  0  0  0  0
  8 14  1  0  0  0  0
  9 15  1  0  0  0  0
 10 16  2  0  0  0  0
 10 17  1  0  0  0  0
 18 14  1  6  0  0  0
 17 19  1  1  0  0  0
 17 20  1  0  0  0  0
 18 21  1  0  0  0  0
 18 22  1  0  0  0  0
 19 23  1  0  0  0  0
 20 24  1  0  0  0  0
 21 25  2  0  0  0  0
 21 26  1  0  0  0  0
 22 27  1  0  0  0  0
 23 28  2  0  0  0  0
 23 29  1  0  0  0  0
 27 30  2  0  0  0  0
 27 31  1  0  0  0  0
 29 32  1  0  0  0  0
 32 33  1  0  0  0  0
 33 34  2  0  0  0  0
 33 35  1  0  0  0  0
 35 36  1  1  0  0  0
 35 37  1  0  0  0  0
 36 38  1  0  0  0  0
 37 39  1  0  0  0  0
 38 40  2  0  0  0  0
 38 41  1  0  0  0  0
 39 42  1  0  0  0  0
 41 43  1  6  0  0  0
 41 44  1  0  0  0  0
 42 45  2  0  0  0  0
 42 46  1  0  0  0  0
 43 47  1  0  0  0  0
 44 48  1  0  0  0  0
 47 49  2  0  0  0  0
 47 50  1  0  0  0  0
 48 51  1  0  0  0  0
 50 52  1  1  0  0  0
 50 53  1  0  0  0  0
 51 54  2  0  0  0  0
 51 55  1  0  0  0  0
 52 56  1  0  0  0  0
 53 57  1  0  0  0  0
 56 58  2  0  0  0  0
 56 59  1  0  0  0  0
 57 60  1  0  0  0  0
 57 61  1  0  0  0  0
 59 62  1  6  0  0  0
 59 63  1  0  0  0  0
 62 64  1  0  0  0  0
 63 65  1  0  0  0  0
 64 66  2  0  0  0  0
 64 67  1  0  0  0  0
 65 68  1  0  0  0  0
 65 69  1  0  0  0  0
 67 70  1  1  0  0  0
 67 71  1  0  0  0  0
 70 72  1  0  0  0  0
 71 73  1  0  0  0  0
 72 74  2  0  0  0  0
 72 75  1  0  0  0  0
 73 76  1  0  0  0  0
 75 77  1  6  0  0  0
 75 78  1  0  0  0  0
 76 79  1  0  0  0  0
 77 80  1  0  0  0  0
 78 81  1  0  0  0  0
 79 82  1  0  0  0  0
 80 83  2  0  0  0  0
 80 84  1  0  0  0  0
 81 85  1  0  0  0  0
 81 86  2  0  0  0  0
 82 87  2  0  0  0  0
 82 88  1  0  0  0  0
 84 89  1  1  0  0  0
 84 90  1  0  0  0  0
 85 91  2  0  0  0  0
 86 92  1  0  0  0  0
 89 93  1  0  0  0  0
 90 94  1  0  0  0  0
 93 95  2  0  0  0  0
 93 96  1  0  0  0  0
 94 97  1  0  0  0  0
 94 98  1  0  0  0  0
 96 99  1  6  0  0  0
 96100  1  0  0  0  0
 99101  1  0  0  0  0
100102  1  0  0  0  0
100103  1  1  0  0  0
101104  2  0  0  0  0
101105  1  0  0  0  0
102106  1  0  0  0  0
105107  1  1  0  0  0
105108  1  0  0  0  0
107109  1  0  0  0  0
108110  1  0  0  0  0
109111  2  0  0  0  0
109112  1  0  0  0  0
110113  1  0  0  0  0
112114  1  6  0  0  0
112115  1  0  0  0  0
113116  1  0  0  0  0
114117  1  0  0  0  0
115118  1  0  0  0  0
116119  1  0  0  0  0
117120  2  0  0  0  0
117121  1  0  0  0  0
118122  1  0  0  0  0
118123  2  0  0  0  0
121124  1  1  0  0  0
121125  1  0  0  0  0
122126  2  0  0  0  0
123127  1  0  0  0  0
124128  1  0  0  0  0
125129  1  0  0  0  0
128130  2  0  0  0  0
128131  1  0  0  0  0
129132  1  0  0  0  0
131133  1  6  0  0  0
131134  1  0  0  0  0
132135  1  0  0  0  0
133136  1  0  0  0  0
134137  1  0  0  0  0
135138  1  0  0  0  0
136139  2  0  0  0  0
136140  1  0  0  0  0
137141  1  0  0  0  0
138142  2  0  0  0  0
138143  1  0  0  0  0
140144  1  1  0  0  0
140145  1  0  0  0  0
141146  2  0  0  0  0
141147  1  0  0  0  0
144148  1  0  0  0  0
145149  1  1  0  0  0
145150  1  0  0  0  0
148151  2  0  0  0  0
148152  1  0  0  0  0
152153  1  6  0  0  0
152154  1  0  0  0  0
154155  1  0  0  0  0
155156  1  0  0  0  0
155157  1  0  0  0  0
 11 12  1  0  0  0  0
 91 92  1  0  0  0  0
126127  1  0  0  0  0
M  END
>  <MolRegNo>
1546511

>  <m>
=

>  <Value>
190

>  <Unit>
nM

>  <Type>
Ki

>  <pValue>
6.72

>  <Ligand Efficiency>
0

>  <Binding Efficiency>
3.01

>  <Surface Efficiency>
0

>  <Assay Index>
296507

>  <Assay Category>


>  <Assay Organism>
Homo sapiens

>  <Target ID>
19

>  <Target Name>
Estrogen receptor alpha

>  <Target Organism>
Homo sapiens

>  <Target Description>
Target is a single protein chain

>  <Sequence Accession>
P03372

>  <Reference>
Bioorg Med Chem Lett 17 (15), 4118-4122 (2007)

>  <Pubmed ID>
17560105

>  <DOI>
10.1016/j.bmcl.2007.05.058

$$$$
398315
Actelion Java MolfileCreator 1.0

 39 41  0  0  0  0  0  0  0  0999 V2000
    0.0000   -0.0000   -0.0000 O   0  0  0  0  0  0  0  0  0  0  0  0
    0.7418   -1.2800   -0.0000 C   0  0  0  0  0  0  0  0  0  0  0  0
    2.2255   -1.2655   -0.0000 O   0  0  0  0  0  0  0  0  0  0  0  0
   -0.0145   -2.5600   -0.0000 N   0  0  0  0  0  0  0  0  0  0  0  0
    2.9528    0.0436   -0.0000 C   0  0  0  0  0  0  0  0  0  0  0  0
    0.7273   -3.8401   -0.0000 C   0  0  0  0  0  0  0  0  0  0  0  0
    4.4364    0.0582   -0.0000 C   0  0  0  0  0  0  0  0  0  0  0  0
    2.2109   -3.8255   -0.0000 C   0  0  0  0  0  0  0  0  0  0  0  0
   -0.0291   -5.1346   -0.0000 C   0  0  0  0  0  0  0  0  0  0  0  0
    5.1637   -1.2218   -0.0000 C   0  0  0  0  0  0  0  0  0  0  0  0
    5.1637    1.3673   -0.0000 C   0  0  0  0  0  0  0  0  0  0  0  0
    2.9528   -5.1055   -0.0000 O   0  0  0  0  0  0  0  0  0  0  0  0
    2.9382   -2.5019   -0.0000 O   0  0  0  0  0  0  0  0  0  0  0  0
   -1.5418   -5.1201   -0.0000 C   0  0  0  0  0  0  0  0  0  0  0  0
    6.6474   -1.2073   -0.0000 C   0  0  0  0  0  0  0  0  0  0  0  0
    6.6328    1.3964   -0.0000 C   0  0  0  0  0  0  0  0  0  0  0  0
    4.4219   -2.4873   -0.0000 C   0  0  0  0  0  0  0  0  0  0  0  0
   -2.8946   -4.4801   -0.0000 C   0  0  0  0  0  0  0  0  0  0  0  0
   -1.8182   -3.7528   -0.0000 C   0  0  0  0  0  0  0  0  0  0  0  0
   -1.5709   -6.6037   -0.0000 C   0  0  0  0  0  0  0  0  0  0  0  0
    7.3746    0.1018   -0.0000 C   0  0  0  0  0  0  0  0  0  0  0  0
   -4.4073   -5.1055   -0.0000 C   0  0  0  0  0  0  0  0  0  0  0  0
   -2.6619   -2.6182   -0.0000 C   0  0  0  0  0  0  0  0  0  0  0  0
   -3.1564   -3.1564   -0.0000 C   0  0  0  0  0  0  0  0  0  0  0  0
   -4.6110   -3.7382   -0.0000 C   0  0  0  0  0  0  0  0  0  0  0  0
   -3.1128   -1.5273   -0.0000 C   0  0  0  0  0  0  0  0  0  0  0  0
   -5.9346   -2.9673   -0.0000 C   0  0  0  0  0  0  0  0  0  0  0  0
   -5.2073   -1.6582   -0.0000 C   0  0  0  0  0  0  0  0  0  0  0  0
   -7.2583   -2.2109   -0.0000 C   0  0  0  0  0  0  0  0  0  0  0  0
   -6.7055   -4.2619   -0.0000 C   0  0  0  0  0  0  0  0  0  0  0  0
   -3.7237   -1.6291   -0.0000 C   0  0  0  0  0  0  0  0  0  0  0  0
   -2.9964   -0.3055   -0.0000 N   0  0  0  0  0  0  0  0  0  0  0  0
   -3.7673    1.0037   -0.0000 C   0  0  0  0  0  0  0  0  0  0  0  0
   -5.2801    1.0037   -0.0000 O   0  0  0  0  0  0  0  0  0  0  0  0
   -3.0400    2.3273   -0.0000 C   0  0  0  0  0  0  0  0  0  0  0  0
   -1.5564    2.3564   -0.0000 C   0  0  0  0  0  0  0  0  0  0  0  0
   -0.8291    3.6801   -0.0000 C   0  0  0  0  0  0  0  0  0  0  0  0
    0.6546    3.7091   -0.0000 C   0  0  0  0  0  0  0  0  0  0  0  0
   -1.6000    4.9892   -0.0000 C   0  0  0  0  0  0  0  0  0  0  0  0
  1  2  2  0  0  0  0
  2  3  1  0  0  0  0
  2  4  1  0  0  0  0
  3  5  1  0  0  0  0
  4  6  1  0  0  0  0
  5  7  1  0  0  0  0
  6  8  1  0  0  0  0
  6  9  1  0  0  0  0
  7 10  2  0  0  0  0
  7 11  1  0  0  0  0
  8 12  2  0  0  0  0
  8 13  1  0  0  0  0
  9 14  1  0  0  0  0
 10 15  1  0  0  0  0
 11 16  2  0  0  0  0
 13 17  1  0  0  0  0
 14 18  1  0  0  0  0
 14 19  1  0  0  0  0
 14 20  1  0  0  0  0
 15 21  2  0  0  0  0
 18 22  1  0  0  0  0
 18 23  1  0  0  0  0
 19 24  1  0  0  0  0
 22 25  1  0  0  0  0
 23 26  1  0  0  0  0
 25 27  1  0  0  0  0
 27 28  1  0  0  0  0
 27 29  1  0  0  0  0
 27 30  1  0  0  0  0
 28 31  1  0  0  0  0
 31 32  1  0  0  0  0
 32 33  1  0  0  0  0
 33 34  2  0  0  0  0
 33 35  1  0  0  0  0
 35 36  1  0  0  0  0
 36 37  1  0  0  0  0
 37 38  1  0  0  0  0
 37 39  1  0  0  0  0
 16 21  1  0  0  0  0
 24 25  1  0  0  0  0
 24 26  1  0  0  0  0
M  END
>  <MolRegNo>
398315

>  <m>
=

>  <Value>
38000

>  <Unit>
nM

>  <Type>
Ki

>  <pValue>
4.42

>  <Ligand Efficiency>
0.15

>  <Binding Efficiency>
8.14

>  <Surface Efficiency>
4.72

>  <Assay Index>
296507

>  <Assay Category>


>  <Assay Organism>
Homo sapiens

>  <Target ID>
19

>  <Target Name>
Estrogen receptor alpha

>  <Target Organism>
Homo sapiens

>  <Target Description>
Target is a single protein chain

>  <Sequence Accession>
P03372

>  <Reference>
Bioorg Med Chem Lett 17 (15), 4118-4122 (2007)

>  <Pubmed ID>
17560105

>  <DOI>
10.1016/j.bmcl.2007.05.058

$$$$
398314
Actelion Java MolfileCreator 1.0

 32 33  0  0  0  0  0  0  0  0999 V2000
    0.0000   -0.0000   -0.0000 O   0  0  0  0  0  0  0  0  0  0  0  0
   -0.7522    1.3164   -0.0000 C   0  0  0  0  0  0  0  0  0  0  0  0
   -0.0145    2.6184   -0.0000 O   0  0  0  0  0  0  0  0  0  0  0  0
   -2.2567    1.3454   -0.0000 C   0  0  0  0  0  0  0  0  0  0  0  0
    1.4611    2.6184   -0.0000 C   0  0  0  0  0  0  0  0  0  0  0  0
   -3.0090    2.6618   -0.0000 C   0  0  0  0  0  0  0  0  0  0  0  0
   -3.0234    0.0723   -0.0000 C   0  0  0  0  0  0  0  0  0  0  0  0
   -4.5135    2.6907   -0.0000 O   0  0  0  0  0  0  0  0  0  0  0  0
   -2.2712    3.9637   -0.0000 O   0  0  0  0  0  0  0  0  0  0  0  0
   -4.5279    0.1013   -0.0000 C   0  0  0  0  0  0  0  0  0  0  0  0
   -0.7956    3.9637   -0.0000 C   0  0  0  0  0  0  0  0  0  0  0  0
   -5.8588    0.7522   -0.0000 C   0  0  0  0  0  0  0  0  0  0  0  0
   -4.7883    1.4756   -0.0000 C   0  0  0  0  0  0  0  0  0  0  0  0
   -4.5713   -1.3743   -0.0000 C   0  0  0  0  0  0  0  0  0  0  0  0
   -5.6129    2.6039   -0.0000 C   0  0  0  0  0  0  0  0  0  0  0  0
   -7.3633    0.1447   -0.0000 C   0  0  0  0  0  0  0  0  0  0  0  0
   -6.1048    2.0831   -0.0000 C   0  0  0  0  0  0  0  0  0  0  0  0
   -6.0469    3.7034   -0.0000 C   0  0  0  0  0  0  0  0  0  0  0  0
   -7.5514    1.5045   -0.0000 C   0  0  0  0  0  0  0  0  0  0  0  0
   -8.8678    2.2857   -0.0000 C   0  0  0  0  0  0  0  0  0  0  0  0
   -8.1300    3.5876   -0.0000 C   0  0  0  0  0  0  0  0  0  0  0  0
  -10.1698    3.0524   -0.0000 C   0  0  0  0  0  0  0  0  0  0  0  0
   -9.6490    1.0126   -0.0000 C   0  0  0  0  0  0  0  0  0  0  0  0
   -6.6545    3.6021   -0.0000 C   0  0  0  0  0  0  0  0  0  0  0  0
   -5.9167    4.9041   -0.0000 N   0  0  0  0  0  0  0  0  0  0  0  0
   -6.6834    6.2205   -0.0000 C   0  0  0  0  0  0  0  0  0  0  0  0
   -8.1879    6.2349   -0.0000 O   0  0  0  0  0  0  0  0  0  0  0  0
   -5.9456    7.5224   -0.0000 C   0  0  0  0  0  0  0  0  0  0  0  0
   -4.4701    7.5369   -0.0000 C   0  0  0  0  0  0  0  0  0  0  0  0
   -3.7323    8.8389   -0.0000 C   0  0  0  0  0  0  0  0  0  0  0  0
   -2.2567    8.8533   -0.0000 C   0  0  0  0  0  0  0  0  0  0  0  0
   -4.4845   10.1553   -0.0000 C   0  0  0  0  0  0  0  0  0  0  0  0
  1  2  2  0  0  0  0
  2  3  1  0  0  0  0
  2  4  1  0  0  0  0
  3  5  1  0  0  0  0
  4  6  1  0  0  0  0
  4  7  2  0  0  0  0
  6  8  2  0  0  0  0
  6  9  1  0  0  0  0
  7 10  1  0  0  0  0
  9 11  1  0  0  0  0
 10 12  1  0  0  0  0
 10 13  1  0  0  0  0
 10 14  1  0  0  0  0
 12 15  1  0  0  0  0
 12 16  1  0  0  0  0
 13 17  1  0  0  0  0
 15 18  2  0  0  0  0
 16 19  1  0  0  0  0
 19 20  1  0  0  0  0
 20 21  1  0  0  0  0
 20 22  1  0  0  0  0
 20 23  1  0  0  0  0
 21 24  1  0  0  0  0
 24 25  1  0  0  0  0
 25 26  1  0  0  0  0
 26 27  2  0  0  0  0
 26 28  1  0  0  0  0
 28 29  1  0  0  0  0
 29 30  1  0  0  0  0
 30 31  1  0  0  0  0
 30 32  1  0  0  0  0
 17 18  1  0  0  0  0
 17 19  1  0  0  0  0
M  END
>  <MolRegNo>
398314

>  <m>
=

>  <Value>
7900

>  <Unit>
nM

>  <Type>
Ki

>  <pValue>
5.1

>  <Ligand Efficiency>
0.22

>  <Binding Efficiency>
11.4

>  <Surface Efficiency>
6.25

>  <Assay Index>
296507

>  <Assay Category>


>  <Assay Organism>
Homo sapiens

>  <Target ID>
19

>  <Target Name>
Estrogen receptor alpha

>  <Target Organism>
Homo sapiens

>  <Target Description>
Target is a single protein chain

>  <Sequence Accession>
P03372

>  <Reference>
Bioorg Med Chem Lett 17 (15), 4118-4122 (2007)

>  <Pubmed ID>
17560105

>  <DOI>
10.1016/j.bmcl.2007.05.058

$$$$
398313
Actelion Java MolfileCreator 1.0

 29 30  0  0  0  0  0  0  0  0999 V2000
    0.0000   -0.0000   -0.0000 O   0  0  0  0  0  0  0  0  0  0  0  0
   -0.7670    1.3025   -0.0000 C   0  0  0  0  0  0  0  0  0  0  0  0
   -0.0434    2.6195   -0.0000 O   0  0  0  0  0  0  0  0  0  0  0  0
   -2.2722    1.3170   -0.0000 C   0  0  0  0  0  0  0  0  0  0  0  0
    1.4328    2.6340   -0.0000 C   0  0  0  0  0  0  0  0  0  0  0  0
   -3.0392    2.6195   -0.0000 N   0  0  0  0  0  0  0  0  0  0  0  0
   -3.0247    0.0289   -0.0000 C   0  0  0  0  0  0  0  0  0  0  0  0
   -4.5299    0.0434   -0.0000 C   0  0  0  0  0  0  0  0  0  0  0  0
   -5.8758    0.6657   -0.0000 C   0  0  0  0  0  0  0  0  0  0  0  0
   -4.8193    1.4038   -0.0000 C   0  0  0  0  0  0  0  0  0  0  0  0
   -4.5588   -1.4328   -0.0000 C   0  0  0  0  0  0  0  0  0  0  0  0
   -7.3809    0.0434   -0.0000 C   0  0  0  0  0  0  0  0  0  0  0  0
   -5.6442    2.5182   -0.0000 C   0  0  0  0  0  0  0  0  0  0  0  0
   -6.1363    2.0117   -0.0000 C   0  0  0  0  0  0  0  0  0  0  0  0
   -7.5835    1.3894   -0.0000 C   0  0  0  0  0  0  0  0  0  0  0  0
   -6.0929    3.6036   -0.0000 C   0  0  0  0  0  0  0  0  0  0  0  0
   -8.9005    2.1564   -0.0000 C   0  0  0  0  0  0  0  0  0  0  0  0
   -8.1769    3.4734   -0.0000 C   0  0  0  0  0  0  0  0  0  0  0  0
  -10.2175    2.9234   -0.0000 C   0  0  0  0  0  0  0  0  0  0  0  0
   -9.6531    0.8828   -0.0000 C   0  0  0  0  0  0  0  0  0  0  0  0
   -6.7007    3.5023   -0.0000 C   0  0  0  0  0  0  0  0  0  0  0  0
   -5.9771    4.8193   -0.0000 N   0  0  0  0  0  0  0  0  0  0  0  0
   -6.7441    6.1218   -0.0000 C   0  0  0  0  0  0  0  0  0  0  0  0
   -8.2493    6.1218   -0.0000 O   0  0  0  0  0  0  0  0  0  0  0  0
   -6.0205    7.4388   -0.0000 C   0  0  0  0  0  0  0  0  0  0  0  0
   -4.5443    7.4678   -0.0000 C   0  0  0  0  0  0  0  0  0  0  0  0
   -3.8207    8.7847   -0.0000 C   0  0  0  0  0  0  0  0  0  0  0  0
   -2.3445    8.8137   -0.0000 C   0  0  0  0  0  0  0  0  0  0  0  0
   -4.5878   10.0873   -0.0000 C   0  0  0  0  0  0  0  0  0  0  0  0
  1  2  2  0  0  0  0
  2  3  1  0  0  0  0
  2  4  1  0  0  0  0
  3  5  1  0  0  0  0
  4  6  1  0  0  0  0
  4  7  1  0  0  0  0
  7  8  1  0  0  0  0
  8  9  1  0  0  0  0
  8 10  1  0  0  0  0
  8 11  1  0  0  0  0
  9 12  1  0  0  0  0
  9 13  1  0  0  0  0
 10 14  1  0  0  0  0
 12 15  1  0  0  0  0
 13 16  1  0  0  0  0
 15 17  1  0  0  0  0
 17 18  1  0  0  0  0
 17 19  1  0  0  0  0
 17 20  1  0  0  0  0
 18 21  1  0  0  0  0
 21 22  1  0  0  0  0
 22 23  1  0  0  0  0
 23 24  2  0  0  0  0
 23 25  1  0  0  0  0
 25 26  1  0  0  0  0
 26 27  1  0  0  0  0
 27 28  1  0  0  0  0
 27 29  1  0  0  0  0
 14 15  1  0  0  0  0
 14 16  1  0  0  0  0
M  END
>  <MolRegNo>
398313

>  <m>
=

>  <Value>
32000

>  <Unit>
nM

>  <Type>
Ki

>  <pValue>
4.5

>  <Ligand Efficiency>
0.21

>  <Binding Efficiency>
11

>  <Surface Efficiency>
5.52

>  <Assay Index>
296507

>  <Assay Category>


>  <Assay Organism>
Homo sapiens

>  <Target ID>
19

>  <Target Name>
Estrogen receptor alpha

>  <Target Organism>
Homo sapiens

>  <Target Description>
Target is a single protein chain

>  <Sequence Accession>
P03372

>  <Reference>
Bioorg Med Chem Lett 17 (15), 4118-4122 (2007)

>  <Pubmed ID>
17560105

>  <DOI>
10.1016/j.bmcl.2007.05.058

$$$$
398312
Actelion Java MolfileCreator 1.0

 31 32  0  0  0  0  0  0  0  0999 V2000
    0.0000   -0.0000   -0.0000 O   0  0  0  0  0  0  0  0  0  0  0  0
   -0.7669    1.3023   -0.0000 C   0  0  0  0  0  0  0  0  0  0  0  0
   -0.0434    2.6191   -0.0000 O   0  0  0  0  0  0  0  0  0  0  0  0
   -2.2718    1.3168   -0.0000 C   0  0  0  0  0  0  0  0  0  0  0  0
    1.4325    2.6335   -0.0000 C   0  0  0  0  0  0  0  0  0  0  0  0
   -3.0387    2.6191   -0.0000 C   0  0  0  0  0  0  0  0  0  0  0  0
   -3.0242    0.0289   -0.0000 C   0  0  0  0  0  0  0  0  0  0  0  0
   -4.5436    2.6335   -0.0000 O   0  0  0  0  0  0  0  0  0  0  0  0
   -2.3152    3.9358   -0.0000 O   0  0  0  0  0  0  0  0  0  0  0  0
   -4.5291    0.0434   -0.0000 C   0  0  0  0  0  0  0  0  0  0  0  0
   -5.8748    0.6656   -0.0000 C   0  0  0  0  0  0  0  0  0  0  0  0
   -4.8185    1.4036   -0.0000 C   0  0  0  0  0  0  0  0  0  0  0  0
   -4.5581   -1.4325   -0.0000 C   0  0  0  0  0  0  0  0  0  0  0  0
   -7.3797    0.0434   -0.0000 C   0  0  0  0  0  0  0  0  0  0  0  0
   -5.6433    2.5178   -0.0000 C   0  0  0  0  0  0  0  0  0  0  0  0
   -6.1353    2.0113   -0.0000 C   0  0  0  0  0  0  0  0  0  0  0  0
   -7.5823    1.3891   -0.0000 C   0  0  0  0  0  0  0  0  0  0  0  0
   -6.0919    3.6030   -0.0000 C   0  0  0  0  0  0  0  0  0  0  0  0
   -8.8991    2.1560   -0.0000 C   0  0  0  0  0  0  0  0  0  0  0  0
   -8.1756    3.4728   -0.0000 C   0  0  0  0  0  0  0  0  0  0  0  0
  -10.2158    2.9229   -0.0000 C   0  0  0  0  0  0  0  0  0  0  0  0
   -9.6515    0.8827   -0.0000 C   0  0  0  0  0  0  0  0  0  0  0  0
   -6.6996    3.5017   -0.0000 C   0  0  0  0  0  0  0  0  0  0  0  0
   -5.9761    4.8185   -0.0000 N   0  0  0  0  0  0  0  0  0  0  0  0
   -6.7430    6.1208   -0.0000 C   0  0  0  0  0  0  0  0  0  0  0  0
   -8.2479    6.1208   -0.0000 O   0  0  0  0  0  0  0  0  0  0  0  0
   -6.0195    7.4376   -0.0000 C   0  0  0  0  0  0  0  0  0  0  0  0
   -4.5436    7.4665   -0.0000 C   0  0  0  0  0  0  0  0  0  0  0  0
   -3.8201    8.7833   -0.0000 C   0  0  0  0  0  0  0  0  0  0  0  0
   -2.3441    8.8122   -0.0000 C   0  0  0  0  0  0  0  0  0  0  0  0
   -4.5870   10.0856   -0.0000 C   0  0  0  0  0  0  0  0  0  0  0  0
  1  2  2  0  0  0  0
  2  3  1  0  0  0  0
  2  4  1  0  0  0  0
  3  5  1  0  0  0  0
  4  6  1  0  0  0  0
  4  7  1  0  0  0  0
  6  8  2  0  0  0  0
  6  9  1  0  0  0  0
  7 10  1  0  0  0  0
 10 11  1  0  0  0  0
 10 12  1  0  0  0  0
 10 13  1  0  0  0  0
 11 14  1  0  0  0  0
 11 15  1  0  0  0  0
 12 16  1  0  0  0  0
 14 17  1  0  0  0  0
 15 18  1  0  0  0  0
 17 19  1  0  0  0  0
 19 20  1  0  0  0  0
 19 21  1  0  0  0  0
 19 22  1  0  0  0  0
 20 23  1  0  0  0  0
 23 24  1  0  0  0  0
 24 25  1  0  0  0  0
 25 26  2  0  0  0  0
 25 27  1  0  0  0  0
 27 28  1  0  0  0  0
 28 29  1  0  0  0  0
 29 30  1  0  0  0  0
 29 31  1  0  0  0  0
 16 17  1  0  0  0  0
 16 18  1  0  0  0  0
M  END
>  <MolRegNo>
398312

>  <m>
=

>  <Value>
12000

>  <Unit>
nM

>  <Type>
Ki

>  <pValue>
4.92

>  <Ligand Efficiency>
0.22

>  <Binding Efficiency>
11.24

>  <Surface Efficiency>
5.31

>  <Assay Index>
296507

>  <Assay Category>


>  <Assay Organism>
Homo sapiens

>  <Target ID>
19

>  <Target Name>
Estrogen receptor alpha

>  <Target Organism>
Homo sapiens

>  <Target Description>
Target is a single protein chain

>  <Sequence Accession>
P03372

>  <Reference>
Bioorg Med Chem Lett 17 (15), 4118-4122 (2007)

>  <Pubmed ID>
17560105

>  <DOI>
10.1016/j.bmcl.2007.05.058

$$$$
398311
Actelion Java MolfileCreator 1.0

 32 33  0  0  0  0  0  0  0  0999 V2000
    0.0000   -0.0000   -0.0000 O   0  0  0  0  0  0  0  0  0  0  0  0
   -0.7673    1.3029   -0.0000 C   0  0  0  0  0  0  0  0  0  0  0  0
   -0.0434    2.6203   -0.0000 O   0  0  0  0  0  0  0  0  0  0  0  0
   -2.2729    1.3174   -0.0000 C   0  0  0  0  0  0  0  0  0  0  0  0
    1.4332    2.6348   -0.0000 C   0  0  0  0  0  0  0  0  0  0  0  0
   -3.0402    2.6203   -0.0000 C   0  0  0  0  0  0  0  0  0  0  0  0
   -3.0257    0.0290   -0.0000 C   0  0  0  0  0  0  0  0  0  0  0  0
   -4.5458    2.6348   -0.0000 O   0  0  0  0  0  0  0  0  0  0  0  0
   -2.3163    3.9378   -0.0000 O   0  0  0  0  0  0  0  0  0  0  0  0
   -4.5313    0.0434   -0.0000 C   0  0  0  0  0  0  0  0  0  0  0  0
   -0.8397    3.9522   -0.0000 C   0  0  0  0  0  0  0  0  0  0  0  0
   -5.8777    0.6659   -0.0000 C   0  0  0  0  0  0  0  0  0  0  0  0
   -4.8209    1.4043   -0.0000 C   0  0  0  0  0  0  0  0  0  0  0  0
   -4.5603   -1.4332   -0.0000 C   0  0  0  0  0  0  0  0  0  0  0  0
   -7.3833    0.0434   -0.0000 C   0  0  0  0  0  0  0  0  0  0  0  0
   -5.6460    2.5190   -0.0000 C   0  0  0  0  0  0  0  0  0  0  0  0
   -6.1383    2.0123   -0.0000 C   0  0  0  0  0  0  0  0  0  0  0  0
   -7.5860    1.3898   -0.0000 C   0  0  0  0  0  0  0  0  0  0  0  0
   -6.0948    3.6048   -0.0000 C   0  0  0  0  0  0  0  0  0  0  0  0
   -8.9034    2.1571   -0.0000 C   0  0  0  0  0  0  0  0  0  0  0  0
   -8.1795    3.4745   -0.0000 C   0  0  0  0  0  0  0  0  0  0  0  0
  -10.2208    2.9244   -0.0000 C   0  0  0  0  0  0  0  0  0  0  0  0
   -9.6562    0.8831   -0.0000 C   0  0  0  0  0  0  0  0  0  0  0  0
   -6.7029    3.5034   -0.0000 C   0  0  0  0  0  0  0  0  0  0  0  0
   -5.9790    4.8209   -0.0000 N   0  0  0  0  0  0  0  0  0  0  0  0
   -6.7463    6.1238   -0.0000 C   0  0  0  0  0  0  0  0  0  0  0  0
   -8.2519    6.1238   -0.0000 O   0  0  0  0  0  0  0  0  0  0  0  0
   -6.0224    7.4412   -0.0000 C   0  0  0  0  0  0  0  0  0  0  0  0
   -4.5458    7.4702   -0.0000 C   0  0  0  0  0  0  0  0  0  0  0  0
   -3.8219    8.7876   -0.0000 C   0  0  0  0  0  0  0  0  0  0  0  0
   -2.3453    8.8165   -0.0000 C   0  0  0  0  0  0  0  0  0  0  0  0
   -4.5892   10.0905   -0.0000 C   0  0  0  0  0  0  0  0  0  0  0  0
  1  2  2  0  0  0  0
  2  3  1  0  0  0  0
  2  4  1  0  0  0  0
  3  5  1  0  0  0  0
  4  6  1  0  0  0  0
  4  7  1  0  0  0  0
  6  8  2  0  0  0  0
  6  9  1  0  0  0  0
  7 10  1  0  0  0  0
  9 11  1  0  0  0  0
 10 12  1  0  0  0  0
 10 13  1  0  0  0  0
 10 14  1  0  0  0  0
 12 15  1  0  0  0  0
 12 16  1  0  0  0  0
 13 17  1  0  0  0  0
 15 18  1  0  0  0  0
 16 19  1  0  0  0  0
 18 20  1  0  0  0  0
 20 21  1  0  0  0  0
 20 22  1  0  0  0  0
 20 23  1  0  0  0  0
 21 24  1  0  0  0  0
 24 25  1  0  0  0  0
 25 26  1  0  0  0  0
 26 27  2  0  0  0  0
 26 28  1  0  0  0  0
 28 29  1  0  0  0  0
 29 30  1  0  0  0  0
 30 31  1  0  0  0  0
 30 32  1  0  0  0  0
 17 18  1  0  0  0  0
 17 19  1  0  0  0  0
M  END
>  <MolRegNo>
398311

>  <m>
=

>  <Value>
7100

>  <Unit>
nM

>  <Type>
Ki

>  <pValue>
5.15

>  <Ligand Efficiency>
0.22

>  <Binding Efficiency>
11.4

>  <Surface Efficiency>
6.3

>  <Assay Index>
296507

>  <Assay Category>


>  <Assay Organism>
Homo sapiens

>  <Target ID>
19

>  <Target Name>
Estrogen receptor alpha

>  <Target Organism>
Homo sapiens

>  <Target Description>
Target is a single protein chain

>  <Sequence Accession>
P03372

>  <Reference>
Bioorg Med Chem Lett 17 (15), 4118-4122 (2007)

>  <Pubmed ID>
17560105

>  <DOI>
10.1016/j.bmcl.2007.05.058

$$$$
399910
Actelion Java MolfileCreator 1.0

 22 25  0  0  1  0  0  0  0  0999 V2000
    0.0000   -0.0000   -0.0000 O   0  0  0  0  0  0  0  0  0  0  0  0
   -1.3074    0.7607   -0.0000 C   0  0  0  0  0  0  0  0  0  0  0  0
    1.2955    0.7607   -0.0000 C   0  0  0  0  0  0  0  0  0  0  0  0
   -1.3193    2.2820   -0.0000 C   0  0  0  0  0  0  0  0  0  0  0  0
   -2.6029    0.0238   -0.0000 C   0  0  0  0  0  0  0  0  0  0  0  0
    2.5791    0.0238   -0.0000 C   0  0  0  0  0  0  0  0  0  0  0  0
    1.2717    2.2701   -0.0000 C   0  0  0  0  0  0  0  0  0  0  0  0
   -2.6267    3.0427   -0.0000 C   0  0  0  0  0  0  0  0  0  0  0  0
   -0.0238    3.0427   -0.0000 C   0  0  0  0  0  0  0  0  0  0  0  0
   -3.9103    0.7963   -0.0000 C   0  0  0  0  0  0  0  0  0  0  0  0
    2.5672   -1.4619   -0.0000 C   0  0  0  0  0  0  0  0  0  0  0  0
    3.8627    0.7844   -0.0000 C   0  0  0  0  0  0  0  0  0  0  0  0
    2.3890    3.2685   -0.0000 C   0  0  0  0  0  0  0  0  0  0  0  0
   -3.9341    2.3058   -0.0000 C   0  0  0  0  0  0  0  0  0  0  0  0
    0.2971    4.5164   -0.0000 C   0  0  0  0  0  0  0  0  0  0  0  0
    3.8509   -2.1988   -0.0000 C   0  0  0  0  0  0  0  0  0  0  0  0
    5.1583    0.0475   -0.0000 C   0  0  0  0  0  0  0  0  0  0  0  0
    1.7828    4.6591   -0.0000 C   0  0  0  0  0  0  0  0  0  0  0  0
   -5.2415    3.0664   -0.0000 O   0  0  0  0  0  0  0  0  0  0  0  0
    5.1345   -1.4381   -0.0000 C   0  0  0  0  0  0  0  0  0  0  0  0
    2.5316    5.9546   -0.0000 C   0  0  0  0  0  0  0  0  0  0  0  0
    6.4181   -2.1750   -0.0000 O   0  0  0  0  0  0  0  0  0  0  0  0
  1  2  1  0  0  0  0
  1  3  1  0  0  0  0
  2  4  2  0  0  0  0
  2  5  1  0  0  0  0
  3  6  1  6  0  0  0
  3  7  1  0  0  0  0
  4  8  1  0  0  0  0
  4  9  1  0  0  0  0
  5 10  2  0  0  0  0
  6 11  2  0  0  0  0
  6 12  1  0  0  0  0
  7 13  1  6  0  0  0
  8 14  2  0  0  0  0
  9 15  1  6  0  0  0
 11 16  1  0  0  0  0
 12 17  2  0  0  0  0
 13 18  1  0  0  0  0
 14 19  1  0  0  0  0
 16 20  2  0  0  0  0
 18 21  1  6  0  0  0
 20 22  1  0  0  0  0
  7  9  1  0  0  0  0
 10 14  1  0  0  0  0
 15 18  1  0  0  0  0
 17 20  1  0  0  0  0
M  END
>  <MolRegNo>
399910

>  <m>
=

>  <Value>
3.3

>  <Unit>
nM

>  <Type>
Ki

>  <pValue>
8.48

>  <Ligand Efficiency>
0.53

>  <Binding Efficiency>
28.62

>  <Surface Efficiency>
17.07

>  <Assay Index>
297472

>  <Assay Category>


>  <Assay Organism>
Homo sapiens

>  <Target ID>
19

>  <Target Name>
Estrogen receptor alpha

>  <Target Organism>
Homo sapiens

>  <Target Description>
Target is a single protein chain

>  <Sequence Accession>
P03372

>  <Reference>
Bioorg Med Chem Lett 17 (17), 4824-4828 (2007)

>  <Pubmed ID>
17614275

>  <DOI>
10.1016/j.bmcl.2007.06.052

$$$$
399909
Actelion Java MolfileCreator 1.0

 25 28  0  0  1  0  0  0  0  0999 V2000
    0.0000   -0.0000   -0.0000 F   0  0  0  0  0  0  0  0  0  0  0  0
   -0.7876   -1.2649   -0.0000 C   0  0  0  0  0  0  0  0  0  0  0  0
   -2.1003   -0.5012   -0.0000 F   0  0  0  0  0  0  0  0  0  0  0  0
    0.4893   -1.9929   -0.0000 F   0  0  0  0  0  0  0  0  0  0  0  0
   -1.5633   -2.5418   -0.0000 C   0  0  0  0  0  0  0  0  0  0  0  0
   -3.0788   -2.6731   -0.0000 C   0  0  0  0  0  0  0  0  0  0  0  0
   -0.9785   -3.9142   -0.0000 C   0  0  0  0  0  0  0  0  0  0  0  0
   -3.4249   -4.1290   -0.0000 C   0  0  0  0  0  0  0  0  0  0  0  0
   -2.1242   -4.8927   -0.0000 C   0  0  0  0  0  0  0  0  0  0  0  0
   -4.7376   -4.8689   -0.0000 C   0  0  0  0  0  0  0  0  0  0  0  0
   -2.1242   -6.3844   -0.0000 C   0  0  0  0  0  0  0  0  0  0  0  0
   -4.7495   -6.3725   -0.0000 C   0  0  0  0  0  0  0  0  0  0  0  0
   -6.0503   -4.1051   -0.0000 C   0  0  0  0  0  0  0  0  0  0  0  0
   -3.4488   -7.1243   -0.0000 O   0  0  0  0  0  0  0  0  0  0  0  0
   -0.8353   -7.1243   -0.0000 C   0  0  0  0  0  0  0  0  0  0  0  0
   -6.0503   -7.1124   -0.0000 C   0  0  0  0  0  0  0  0  0  0  0  0
   -7.3630   -4.8450   -0.0000 C   0  0  0  0  0  0  0  0  0  0  0  0
   -0.8473   -8.6160   -0.0000 C   0  0  0  0  0  0  0  0  0  0  0  0
    0.4535   -6.3605   -0.0000 C   0  0  0  0  0  0  0  0  0  0  0  0
   -7.3630   -6.3486   -0.0000 C   0  0  0  0  0  0  0  0  0  0  0  0
   -8.6756   -4.0932   -0.0000 O   0  0  0  0  0  0  0  0  0  0  0  0
    0.4415   -9.3559   -0.0000 C   0  0  0  0  0  0  0  0  0  0  0  0
    1.7423   -7.1004   -0.0000 C   0  0  0  0  0  0  0  0  0  0  0  0
    1.7304   -8.5921   -0.0000 C   0  0  0  0  0  0  0  0  0  0  0  0
    3.0192   -9.3320   -0.0000 O   0  0  0  0  0  0  0  0  0  0  0  0
  1  2  1  0  0  0  0
  2  3  1  0  0  0  0
  2  4  1  0  0  0  0
  5  2  1  6  0  0  0
  5  6  1  0  0  0  0
  5  7  1  0  0  0  0
  8  6  1  6  0  0  0
  9  7  1  6  0  0  0
  8 10  1  0  0  0  0
  9 11  1  0  0  0  0
 10 12  2  0  0  0  0
 10 13  1  0  0  0  0
 11 14  1  0  0  0  0
 11 15  1  6  0  0  0
 12 16  1  0  0  0  0
 13 17  2  0  0  0  0
 15 18  2  0  0  0  0
 15 19  1  0  0  0  0
 16 20  2  0  0  0  0
 17 21  1  0  0  0  0
 18 22  1  0  0  0  0
 19 23  2  0  0  0  0
 22 24  2  0  0  0  0
 24 25  1  0  0  0  0
  8  9  1  0  0  0  0
 12 14  1  0  0  0  0
 17 20  1  0  0  0  0
 23 24  1  0  0  0  0
M  END
>  <MolRegNo>
399909

>  <m>
=

>  <Value>
12.4

>  <Unit>
nM

>  <Type>
Ki

>  <pValue>
7.91

>  <Ligand Efficiency>
0.43

>  <Binding Efficiency>
22.57

>  <Surface Efficiency>
15.91

>  <Assay Index>
297472

>  <Assay Category>


>  <Assay Organism>
Homo sapiens

>  <Target ID>
19

>  <Target Name>
Estrogen receptor alpha

>  <Target Organism>
Homo sapiens

>  <Target Description>
Target is a single protein chain

>  <Sequence Accession>
P03372

>  <Reference>
Bioorg Med Chem Lett 17 (17), 4824-4828 (2007)

>  <Pubmed ID>
17614275

>  <DOI>
10.1016/j.bmcl.2007.06.052

$$$$
399908
Actelion Java MolfileCreator 1.0

 25 28  0  0  1  0  0  0  0  0999 V2000
    0.0000   -0.0000   -0.0000 F   0  0  0  0  0  0  0  0  0  0  0  0
   -0.7871   -1.2641   -0.0000 C   0  0  0  0  0  0  0  0  0  0  0  0
   -2.0990   -0.5009   -0.0000 F   0  0  0  0  0  0  0  0  0  0  0  0
    0.4890   -1.9916   -0.0000 F   0  0  0  0  0  0  0  0  0  0  0  0
   -1.5623   -2.5402   -0.0000 C   0  0  0  0  0  0  0  0  0  0  0  0
   -3.0769   -2.6714   -0.0000 C   0  0  0  0  0  0  0  0  0  0  0  0
   -0.9779   -3.9117   -0.0000 C   0  0  0  0  0  0  0  0  0  0  0  0
   -3.4227   -4.1264   -0.0000 C   0  0  0  0  0  0  0  0  0  0  0  0
   -2.1228   -4.8896   -0.0000 C   0  0  0  0  0  0  0  0  0  0  0  0
   -4.7465   -4.8658   -0.0000 C   0  0  0  0  0  0  0  0  0  0  0  0
   -2.1228   -6.3804   -0.0000 C   0  0  0  0  0  0  0  0  0  0  0  0
   -4.7584   -6.3684   -0.0000 C   0  0  0  0  0  0  0  0  0  0  0  0
   -6.0584   -4.1025   -0.0000 C   0  0  0  0  0  0  0  0  0  0  0  0
   -3.4466   -7.1198   -0.0000 O   0  0  0  0  0  0  0  0  0  0  0  0
   -0.8348   -7.1198   -0.0000 C   0  0  0  0  0  0  0  0  0  0  0  0
   -6.0584   -7.1078   -0.0000 C   0  0  0  0  0  0  0  0  0  0  0  0
   -7.3702   -4.8419   -0.0000 C   0  0  0  0  0  0  0  0  0  0  0  0
   -0.8467   -8.6105   -0.0000 C   0  0  0  0  0  0  0  0  0  0  0  0
    0.4532   -6.3565   -0.0000 C   0  0  0  0  0  0  0  0  0  0  0  0
   -7.3702   -6.3446   -0.0000 C   0  0  0  0  0  0  0  0  0  0  0  0
   -8.6821   -4.0787   -0.0000 O   0  0  0  0  0  0  0  0  0  0  0  0
    0.4413   -9.3499   -0.0000 C   0  0  0  0  0  0  0  0  0  0  0  0
    1.7412   -7.0959   -0.0000 C   0  0  0  0  0  0  0  0  0  0  0  0
    1.7293   -8.5866   -0.0000 C   0  0  0  0  0  0  0  0  0  0  0  0
    3.0173   -9.3261   -0.0000 O   0  0  0  0  0  0  0  0  0  0  0  0
  1  2  1  0  0  0  0
  2  3  1  0  0  0  0
  2  4  1  0  0  0  0
  5  2  1  1  0  0  0
  5  6  1  0  0  0  0
  5  7  1  0  0  0  0
  8  6  1  6  0  0  0
  9  7  1  6  0  0  0
  8 10  1  0  0  0  0
  9 11  1  0  0  0  0
 10 12  2  0  0  0  0
 10 13  1  0  0  0  0
 11 14  1  0  0  0  0
 11 15  1  6  0  0  0
 12 16  1  0  0  0  0
 13 17  2  0  0  0  0
 15 18  2  0  0  0  0
 15 19  1  0  0  0  0
 16 20  2  0  0  0  0
 17 21  1  0  0  0  0
 18 22  1  0  0  0  0
 19 23  2  0  0  0  0
 22 24  2  0  0  0  0
 24 25  1  0  0  0  0
  8  9  1  0  0  0  0
 12 14  1  0  0  0  0
 17 20  1  0  0  0  0
 23 24  1  0  0  0  0
M  END
>  <MolRegNo>
399908

>  <m>
=

>  <Value>
7.2

>  <Unit>
nM

>  <Type>
Ki

>  <pValue>
8.14

>  <Ligand Efficiency>
0.44

>  <Binding Efficiency>
23.24

>  <Surface Efficiency>
16.39

>  <Assay Index>
297472

>  <Assay Category>


>  <Assay Organism>
Homo sapiens

>  <Target ID>
19

>  <Target Name>
Estrogen receptor alpha

>  <Target Organism>
Homo sapiens

>  <Target Description>
Target is a single protein chain

>  <Sequence Accession>
P03372

>  <Reference>
Bioorg Med Chem Lett 17 (17), 4824-4828 (2007)

>  <Pubmed ID>
17614275

>  <DOI>
10.1016/j.bmcl.2007.06.052

$$$$
398420
Actelion Java MolfileCreator 1.0

 23 26  0  0  0  0  0  0  0  0999 V2000
    0.0000   -0.0000   -0.0000 F   0  0  0  0  0  0  0  0  0  0  0  0
   -0.7286    1.3163   -0.0000 C   0  0  0  0  0  0  0  0  0  0  0  0
    0.7522    1.2693   -0.0000 F   0  0  0  0  0  0  0  0  0  0  0  0
   -2.1272    0.7639   -0.0000 C   0  0  0  0  0  0  0  0  0  0  0  0
   -0.8462    2.8206   -0.0000 C   0  0  0  0  0  0  0  0  0  0  0  0
   -3.1026    1.9156   -0.0000 C   0  0  0  0  0  0  0  0  0  0  0  0
   -2.3035    3.1849   -0.0000 C   0  0  0  0  0  0  0  0  0  0  0  0
   -4.6069    1.9744   -0.0000 C   0  0  0  0  0  0  0  0  0  0  0  0
   -3.0204    4.5129   -0.0000 C   0  0  0  0  0  0  0  0  0  0  0  0
   -5.3238    3.3024   -0.0000 C   0  0  0  0  0  0  0  0  0  0  0  0
   -5.4061    0.7169   -0.0000 C   0  0  0  0  0  0  0  0  0  0  0  0
   -4.5247    4.5717   -0.0000 O   0  0  0  0  0  0  0  0  0  0  0  0
   -2.2447    5.7939   -0.0000 C   0  0  0  0  0  0  0  0  0  0  0  0
   -6.8281    3.3612   -0.0000 C   0  0  0  0  0  0  0  0  0  0  0  0
   -6.9104    0.7757   -0.0000 C   0  0  0  0  0  0  0  0  0  0  0  0
   -2.9616    7.1220   -0.0000 C   0  0  0  0  0  0  0  0  0  0  0  0
   -0.7639    5.7587   -0.0000 C   0  0  0  0  0  0  0  0  0  0  0  0
   -7.6273    2.1037   -0.0000 C   0  0  0  0  0  0  0  0  0  0  0  0
   -7.7096   -0.4818   -0.0000 O   0  0  0  0  0  0  0  0  0  0  0  0
   -2.1859    8.4030   -0.0000 C   0  0  0  0  0  0  0  0  0  0  0  0
    0.0118    7.0397   -0.0000 C   0  0  0  0  0  0  0  0  0  0  0  0
   -0.7051    8.3677   -0.0000 C   0  0  0  0  0  0  0  0  0  0  0  0
    0.0705    9.6487   -0.0000 O   0  0  0  0  0  0  0  0  0  0  0  0
  1  2  1  0  0  0  0
  2  3  1  0  0  0  0
  2  4  1  0  0  0  0
  2  5  1  0  0  0  0
  6  4  1  6  0  0  0
  7  5  1  6  0  0  0
  6  8  1  0  0  0  0
  7  9  1  0  0  0  0
  8 10  2  0  0  0  0
  8 11  1  0  0  0  0
  9 12  1  0  0  0  0
  9 13  1  6  0  0  0
 10 14  1  0  0  0  0
 11 15  2  0  0  0  0
 13 16  2  0  0  0  0
 13 17  1  0  0  0  0
 14 18  2  0  0  0  0
 15 19  1  0  0  0  0
 16 20  1  0  0  0  0
 17 21  2  0  0  0  0
 20 22  2  0  0  0  0
 22 23  1  0  0  0  0
  6  7  1  0  0  0  0
 10 12  1  0  0  0  0
 15 18  1  0  0  0  0
 21 22  1  0  0  0  0
M  END
>  <MolRegNo>
398420

>  <m>
=

>  <Value>
8.3

>  <Unit>
nM

>  <Type>
Ki

>  <pValue>
8.08

>  <Ligand Efficiency>
0.48

>  <Binding Efficiency>
25.39

>  <Surface Efficiency>
16.26

>  <Assay Index>
297472

>  <Assay Category>


>  <Assay Organism>
Homo sapiens

>  <Target ID>
19

>  <Target Name>
Estrogen receptor alpha

>  <Target Organism>
Homo sapiens

>  <Target Description>
Target is a single protein chain

>  <Sequence Accession>
P03372

>  <Reference>
Bioorg Med Chem Lett 17 (17), 4824-4828 (2007)

>  <Pubmed ID>
17614275

>  <DOI>
10.1016/j.bmcl.2007.06.052

$$$$
399907
Actelion Java MolfileCreator 1.0

 23 26  0  0  1  0  0  0  0  0999 V2000
    0.0000   -0.0000   -0.0000 O   0  0  0  0  0  0  0  0  0  0  0  0
   -1.3170   -0.7237   -0.0000 C   0  0  0  0  0  0  0  0  0  0  0  0
   -1.3407   -2.2187   -0.0000 C   0  0  0  0  0  0  0  0  0  0  0  0
   -2.6221    0.0593   -0.0000 C   0  0  0  0  0  0  0  0  0  0  0  0
   -2.6577   -2.9424   -0.0000 C   0  0  0  0  0  0  0  0  0  0  0  0
   -3.9390   -0.6644   -0.0000 C   0  0  0  0  0  0  0  0  0  0  0  0
   -2.6577   -4.4255   -0.0000 C   0  0  0  0  0  0  0  0  0  0  0  0
   -3.9628   -2.1594   -0.0000 C   0  0  0  0  0  0  0  0  0  0  0  0
   -3.9746   -5.1611   -0.0000 O   0  0  0  0  0  0  0  0  0  0  0  0
   -1.3763   -5.1611   -0.0000 C   0  0  0  0  0  0  0  0  0  0  0  0
   -5.2797   -2.9068   -0.0000 C   0  0  0  0  0  0  0  0  0  0  0  0
   -5.2916   -4.4018   -0.0000 C   0  0  0  0  0  0  0  0  0  0  0  0
   -1.3882   -6.6560   -0.0000 C   0  0  0  0  0  0  0  0  0  0  0  0
   -0.0949   -4.4018   -0.0000 C   0  0  0  0  0  0  0  0  0  0  0  0
   -6.5967   -2.1475   -0.0000 C   0  0  0  0  0  0  0  0  0  0  0  0
   -6.5967   -5.1492   -0.0000 C   0  0  0  0  0  0  0  0  0  0  0  0
   -0.1068   -7.3916   -0.0000 C   0  0  0  0  0  0  0  0  0  0  0  0
    1.1983   -5.1374   -0.0000 C   0  0  0  0  0  0  0  0  0  0  0  0
   -7.9018   -2.8950   -0.0000 C   0  0  0  0  0  0  0  0  0  0  0  0
   -7.9018   -4.3780   -0.0000 C   0  0  0  0  0  0  0  0  0  0  0  0
    1.1865   -6.6323   -0.0000 C   0  0  0  0  0  0  0  0  0  0  0  0
   -9.2069   -2.1356   -0.0000 O   0  0  0  0  0  0  0  0  0  0  0  0
    2.4678   -7.3679   -0.0000 O   0  0  0  0  0  0  0  0  0  0  0  0
  1  2  2  0  0  0  0
  2  3  1  0  0  0  0
  2  4  1  0  0  0  0
  5  3  1  1  0  0  0
  4  6  1  0  0  0  0
  5  7  1  0  0  0  0
  5  8  1  0  0  0  0
  7  9  1  0  0  0  0
  7 10  1  1  0  0  0
  8 11  1  0  0  0  0
  9 12  1  0  0  0  0
 10 13  2  0  0  0  0
 10 14  1  0  0  0  0
 11 15  1  0  0  0  0
 12 16  1  0  0  0  0
 13 17  1  0  0  0  0
 14 18  2  0  0  0  0
 15 19  2  0  0  0  0
 16 20  2  0  0  0  0
 17 21  2  0  0  0  0
 19 22  1  0  0  0  0
 21 23  1  0  0  0  0
  8  6  1  1  0  0  0
 11 12  2  0  0  0  0
 18 21  1  0  0  0  0
 19 20  1  0  0  0  0
M  END
>  <MolRegNo>
399907

>  <m>
=

>  <Value>
410

>  <Unit>
nM

>  <Type>
Ki

>  <pValue>
6.39

>  <Ligand Efficiency>
0.38

>  <Binding Efficiency>
20.58

>  <Surface Efficiency>
9.57

>  <Assay Index>
297472

>  <Assay Category>


>  <Assay Organism>
Homo sapiens

>  <Target ID>
19

>  <Target Name>
Estrogen receptor alpha

>  <Target Organism>
Homo sapiens

>  <Target Description>
Target is a single protein chain

>  <Sequence Accession>
P03372

>  <Reference>
Bioorg Med Chem Lett 17 (17), 4824-4828 (2007)

>  <Pubmed ID>
17614275

>  <DOI>
10.1016/j.bmcl.2007.06.052

$$$$
399905
Actelion Java MolfileCreator 1.0

 22 25  0  0  1  0  0  0  0  0999 V2000
    0.0000   -0.0000   -0.0000 O   0  0  0  0  0  0  0  0  0  0  0  0
   -0.7748   -1.2754   -0.0000 C   0  0  0  0  0  0  0  0  0  0  0  0
   -2.2887   -1.4066   -0.0000 C   0  0  0  0  0  0  0  0  0  0  0  0
   -0.1907   -2.6463   -0.0000 C   0  0  0  0  0  0  0  0  0  0  0  0
   -2.6343   -2.8608   -0.0000 C   0  0  0  0  0  0  0  0  0  0  0  0
   -1.3350   -3.6237   -0.0000 C   0  0  0  0  0  0  0  0  0  0  0  0
   -3.9575   -3.5999   -0.0000 C   0  0  0  0  0  0  0  0  0  0  0  0
   -1.3350   -5.1137   -0.0000 C   0  0  0  0  0  0  0  0  0  0  0  0
   -3.9694   -5.1018   -0.0000 C   0  0  0  0  0  0  0  0  0  0  0  0
   -5.2687   -2.8370   -0.0000 C   0  0  0  0  0  0  0  0  0  0  0  0
   -2.6582   -5.8528   -0.0000 O   0  0  0  0  0  0  0  0  0  0  0  0
   -0.0477   -5.8528   -0.0000 C   0  0  0  0  0  0  0  0  0  0  0  0
   -5.2687   -5.8408   -0.0000 C   0  0  0  0  0  0  0  0  0  0  0  0
   -6.5799   -3.5760   -0.0000 C   0  0  0  0  0  0  0  0  0  0  0  0
   -0.0596   -7.3428   -0.0000 C   0  0  0  0  0  0  0  0  0  0  0  0
    1.2397   -5.0899   -0.0000 C   0  0  0  0  0  0  0  0  0  0  0  0
   -6.5799   -5.0660   -0.0000 C   0  0  0  0  0  0  0  0  0  0  0  0
   -7.8911   -2.8131   -0.0000 O   0  0  0  0  0  0  0  0  0  0  0  0
    1.2278   -8.0818   -0.0000 C   0  0  0  0  0  0  0  0  0  0  0  0
    2.5271   -5.8289   -0.0000 C   0  0  0  0  0  0  0  0  0  0  0  0
    2.5151   -7.3189   -0.0000 C   0  0  0  0  0  0  0  0  0  0  0  0
    3.8025   -8.0580   -0.0000 O   0  0  0  0  0  0  0  0  0  0  0  0
  1  2  2  0  0  0  0
  2  3  1  0  0  0  0
  2  4  1  0  0  0  0
  5  3  1  6  0  0  0
  6  4  1  6  0  0  0
  5  7  1  0  0  0  0
  6  8  1  0  0  0  0
  7  9  2  0  0  0  0
  7 10  1  0  0  0  0
  8 11  1  0  0  0  0
  8 12  1  6  0  0  0
  9 13  1  0  0  0  0
 10 14  2  0  0  0  0
 12 15  2  0  0  0  0
 12 16  1  0  0  0  0
 13 17  2  0  0  0  0
 14 18  1  0  0  0  0
 15 19  1  0  0  0  0
 16 20  2  0  0  0  0
 19 21  2  0  0  0  0
 21 22  1  0  0  0  0
  5  6  1  0  0  0  0
  9 11  1  0  0  0  0
 14 17  1  0  0  0  0
 20 21  1  0  0  0  0
M  END
>  <MolRegNo>
399905

>  <m>
=

>  <Value>
700

>  <Unit>
nM

>  <Type>
Ki

>  <pValue>
6.16

>  <Ligand Efficiency>
0.38

>  <Binding Efficiency>
20.77

>  <Surface Efficiency>
9.22

>  <Assay Index>
297472

>  <Assay Category>


>  <Assay Organism>
Homo sapiens

>  <Target ID>
19

>  <Target Name>
Estrogen receptor alpha

>  <Target Organism>
Homo sapiens

>  <Target Description>
Target is a single protein chain

>  <Sequence Accession>
P03372

>  <Reference>
Bioorg Med Chem Lett 17 (17), 4824-4828 (2007)

>  <Pubmed ID>
17614275

>  <DOI>
10.1016/j.bmcl.2007.06.052

$$$$
400564
Actelion Java MolfileCreator 1.0

 23 26  0  0  1  0  0  0  0  0999 V2000
    0.0000   -0.0000   -0.0000 O   0  0  0  0  0  0  0  0  0  0  0  0
   -1.3058    0.7597   -0.0000 C   0  0  0  0  0  0  0  0  0  0  0  0
    1.2939    0.7597   -0.0000 C   0  0  0  0  0  0  0  0  0  0  0  0
   -1.3177    2.2792   -0.0000 C   0  0  0  0  0  0  0  0  0  0  0  0
   -2.6116    0.0237   -0.0000 C   0  0  0  0  0  0  0  0  0  0  0  0
    2.5760    0.0237   -0.0000 C   0  0  0  0  0  0  0  0  0  0  0  0
    1.2821    2.2792   -0.0000 C   0  0  0  0  0  0  0  0  0  0  0  0
   -2.6235    3.0271   -0.0000 C   0  0  0  0  0  0  0  0  0  0  0  0
   -0.0356    3.0508   -0.0000 C   0  0  0  0  0  0  0  0  0  0  0  0
   -3.9174    0.7835   -0.0000 C   0  0  0  0  0  0  0  0  0  0  0  0
   -2.6235   -1.4601   -0.0000 C   0  0  0  0  0  0  0  0  0  0  0  0
    2.5641   -1.4601   -0.0000 C   0  0  0  0  0  0  0  0  0  0  0  0
    3.8462    0.7835   -0.0000 C   0  0  0  0  0  0  0  0  0  0  0  0
    2.3979    3.2883   -0.0000 C   0  0  0  0  0  0  0  0  0  0  0  0
   -3.9293    2.2911   -0.0000 C   0  0  0  0  0  0  0  0  0  0  0  0
    0.2730    4.5347   -0.0000 C   0  0  0  0  0  0  0  0  0  0  0  0
   -3.9293   -2.1961   -0.0000 O   0  0  0  0  0  0  0  0  0  0  0  0
    3.8462   -2.1961   -0.0000 C   0  0  0  0  0  0  0  0  0  0  0  0
    5.1283    0.0594   -0.0000 C   0  0  0  0  0  0  0  0  0  0  0  0
    1.7806    4.6772   -0.0000 C   0  0  0  0  0  0  0  0  0  0  0  0
   -5.2351    3.0508   -0.0000 O   0  0  0  0  0  0  0  0  0  0  0  0
    5.1283   -1.4364   -0.0000 C   0  0  0  0  0  0  0  0  0  0  0  0
    6.4103   -2.1724   -0.0000 O   0  0  0  0  0  0  0  0  0  0  0  0
  1  2  1  0  0  0  0
  1  3  1  0  0  0  0
  2  4  2  0  0  0  0
  2  5  1  0  0  0  0
  3  6  1  6  0  0  0
  3  7  1  0  0  0  0
  4  8  1  0  0  0  0
  4  9  1  0  0  0  0
  5 10  2  0  0  0  0
  5 11  1  0  0  0  0
  6 12  2  0  0  0  0
  6 13  1  0  0  0  0
  7 14  1  6  0  0  0
  8 15  2  0  0  0  0
  9 16  1  6  0  0  0
 11 17  1  0  0  0  0
 12 18  1  0  0  0  0
 13 19  2  0  0  0  0
 14 20  1  0  0  0  0
 15 21  1  0  0  0  0
 18 22  2  0  0  0  0
 22 23  1  0  0  0  0
  7  9  1  0  0  0  0
 10 15  1  0  0  0  0
 16 20  1  0  0  0  0
 19 22  1  0  0  0  0
M  END
>  <MolRegNo>
400564

>  <m>
=

>  <Value>
147

>  <Unit>
nM

>  <Type>
Ki

>  <pValue>
6.83

>  <Ligand Efficiency>
0.41

>  <Binding Efficiency>
21.87

>  <Surface Efficiency>
9.77

>  <Assay Index>
297701

>  <Assay Category>


>  <Assay Organism>
Homo sapiens

>  <Target ID>
19

>  <Target Name>
Estrogen receptor alpha

>  <Target Organism>
Homo sapiens

>  <Target Description>
Target is a single protein chain

>  <Sequence Accession>
P03372

>  <Reference>
Bioorg Med Chem Lett 17 (18), 5082-5085 (2007)

>  <Pubmed ID>
17662603

>  <DOI>
10.1016/j.bmcl.2007.07.009

$$$$
400563
Actelion Java MolfileCreator 1.0

 25 28  0  0  1  0  0  0  0  0999 V2000
    0.0000   -0.0000   -0.0000 O   0  0  0  0  0  0  0  0  0  0  0  0
   -1.3063    0.7601   -0.0000 C   0  0  0  0  0  0  0  0  0  0  0  0
    1.2945    0.7601   -0.0000 C   0  0  0  0  0  0  0  0  0  0  0  0
   -1.3182    2.2802   -0.0000 C   0  0  0  0  0  0  0  0  0  0  0  0
   -2.6127    0.0238   -0.0000 C   0  0  0  0  0  0  0  0  0  0  0  0
    2.5771    0.0238   -0.0000 C   0  0  0  0  0  0  0  0  0  0  0  0
    1.2826    2.2802   -0.0000 C   0  0  0  0  0  0  0  0  0  0  0  0
   -2.6246    3.0283   -0.0000 C   0  0  0  0  0  0  0  0  0  0  0  0
   -0.0356    3.0521   -0.0000 C   0  0  0  0  0  0  0  0  0  0  0  0
   -3.9190    0.7838   -0.0000 C   0  0  0  0  0  0  0  0  0  0  0  0
   -2.6246   -1.4607   -0.0000 C   0  0  0  0  0  0  0  0  0  0  0  0
    2.5652   -1.4607   -0.0000 C   0  0  0  0  0  0  0  0  0  0  0  0
    3.8478    0.7838   -0.0000 C   0  0  0  0  0  0  0  0  0  0  0  0
    2.3989    3.2896   -0.0000 C   0  0  0  0  0  0  0  0  0  0  0  0
   -3.9309    2.2920   -0.0000 C   0  0  0  0  0  0  0  0  0  0  0  0
    0.2731    4.5366   -0.0000 C   0  0  0  0  0  0  0  0  0  0  0  0
   -3.9309   -2.1970   -0.0000 O   0  0  0  0  0  0  0  0  0  0  0  0
    3.8478   -2.1970   -0.0000 C   0  0  0  0  0  0  0  0  0  0  0  0
    5.1304    0.0594   -0.0000 C   0  0  0  0  0  0  0  0  0  0  0  0
    1.7814    4.6791   -0.0000 C   0  0  0  0  0  0  0  0  0  0  0  0
   -5.2372    3.0521   -0.0000 O   0  0  0  0  0  0  0  0  0  0  0  0
   -3.9428   -3.6815   -0.0000 C   0  0  0  0  0  0  0  0  0  0  0  0
    5.1304   -1.4370   -0.0000 C   0  0  0  0  0  0  0  0  0  0  0  0
   -5.2491   -4.4178   -0.0000 C   0  0  0  0  0  0  0  0  0  0  0  0
    6.4129   -2.1733   -0.0000 O   0  0  0  0  0  0  0  0  0  0  0  0
  1  2  1  0  0  0  0
  1  3  1  0  0  0  0
  2  4  2  0  0  0  0
  2  5  1  0  0  0  0
  3  6  1  6  0  0  0
  3  7  1  0  0  0  0
  4  8  1  0  0  0  0
  4  9  1  0  0  0  0
  5 10  2  0  0  0  0
  5 11  1  0  0  0  0
  6 12  2  0  0  0  0
  6 13  1  0  0  0  0
  7 14  1  6  0  0  0
  8 15  2  0  0  0  0
  9 16  1  6  0  0  0
 11 17  1  0  0  0  0
 12 18  1  0  0  0  0
 13 19  2  0  0  0  0
 14 20  1  0  0  0  0
 15 21  1  0  0  0  0
 17 22  1  0  0  0  0
 18 23  2  0  0  0  0
 22 24  1  0  0  0  0
 23 25  1  0  0  0  0
  7  9  1  0  0  0  0
 10 15  1  0  0  0  0
 16 20  1  0  0  0  0
 19 23  1  0  0  0  0
M  END
>  <MolRegNo>
400563

>  <m>
=

>  <Value>
27.2

>  <Unit>
nM

>  <Type>
Ki

>  <pValue>
7.57

>  <Ligand Efficiency>
0.41

>  <Binding Efficiency>
22.22

>  <Surface Efficiency>
12.84

>  <Assay Index>
297701

>  <Assay Category>


>  <Assay Organism>
Homo sapiens

>  <Target ID>
19

>  <Target Name>
Estrogen receptor alpha

>  <Target Organism>
Homo sapiens

>  <Target Description>
Target is a single protein chain

>  <Sequence Accession>
P03372

>  <Reference>
Bioorg Med Chem Lett 17 (18), 5082-5085 (2007)

>  <Pubmed ID>
17662603

>  <DOI>
10.1016/j.bmcl.2007.07.009

$$$$
398418
Actelion Java MolfileCreator 1.0

 24 27  0  0  0  0  0  0  0  0999 V2000
    0.0000   -0.0000   -0.0000 O   0  0  0  0  0  0  0  0  0  0  0  0
   -0.8039   -1.2649   -0.0000 C   0  0  0  0  0  0  0  0  0  0  0  0
    1.4896   -0.0355   -0.0000 C   0  0  0  0  0  0  0  0  0  0  0  0
   -0.1064   -2.5772   -0.0000 C   0  0  0  0  0  0  0  0  0  0  0  0
   -2.3171   -1.2058   -0.0000 C   0  0  0  0  0  0  0  0  0  0  0  0
    2.2698    1.2531   -0.0000 C   0  0  0  0  0  0  0  0  0  0  0  0
    2.1870   -1.3477   -0.0000 C   0  0  0  0  0  0  0  0  0  0  0  0
   -0.9103   -3.8421   -0.0000 C   0  0  0  0  0  0  0  0  0  0  0  0
    1.3832   -2.6126   -0.0000 C   0  0  0  0  0  0  0  0  0  0  0  0
   -3.1210   -2.4708   -0.0000 C   0  0  0  0  0  0  0  0  0  0  0  0
   -3.0382    0.1300   -0.0000 C   0  0  0  0  0  0  0  0  0  0  0  0
    1.5487    2.5890   -0.0000 C   0  0  0  0  0  0  0  0  0  0  0  0
    3.7594    1.2177   -0.0000 C   0  0  0  0  0  0  0  0  0  0  0  0
    3.6293   -1.6905   -0.0000 C   0  0  0  0  0  0  0  0  0  0  0  0
   -2.4235   -3.7830   -0.0000 C   0  0  0  0  0  0  0  0  0  0  0  0
    2.3407   -3.7475   -0.0000 C   0  0  0  0  0  0  0  0  0  0  0  0
   -2.2580    1.4186   -0.0000 O   0  0  0  0  0  0  0  0  0  0  0  0
    2.3289    3.8776   -0.0000 C   0  0  0  0  0  0  0  0  0  0  0  0
    4.5396    2.5062   -0.0000 C   0  0  0  0  0  0  0  0  0  0  0  0
    3.7239   -3.1801   -0.0000 C   0  0  0  0  0  0  0  0  0  0  0  0
   -3.2274   -5.0479   -0.0000 O   0  0  0  0  0  0  0  0  0  0  0  0
   -2.9791    2.7545   -0.0000 C   0  0  0  0  0  0  0  0  0  0  0  0
    3.8185    3.8421   -0.0000 C   0  0  0  0  0  0  0  0  0  0  0  0
    4.5987    5.1307   -0.0000 O   0  0  0  0  0  0  0  0  0  0  0  0
  1  2  1  0  0  0  0
  1  3  1  0  0  0  0
  2  4  2  0  0  0  0
  2  5  1  0  0  0  0
  3  6  1  6  0  0  0
  3  7  1  0  0  0  0
  4  8  1  0  0  0  0
  4  9  1  0  0  0  0
  5 10  2  0  0  0  0
  5 11  1  0  0  0  0
  6 12  2  0  0  0  0
  6 13  1  0  0  0  0
  7 14  1  6  0  0  0
  8 15  2  0  0  0  0
  9 16  1  6  0  0  0
 11 17  1  0  0  0  0
 12 18  1  0  0  0  0
 13 19  2  0  0  0  0
 14 20  1  0  0  0  0
 15 21  1  0  0  0  0
 17 22  1  0  0  0  0
 18 23  2  0  0  0  0
 23 24  1  0  0  0  0
  7  9  1  0  0  0  0
 10 15  1  0  0  0  0
 16 20  1  0  0  0  0
 19 23  1  0  0  0  0
M  END
>  <MolRegNo>
398418

>  <m>
=

>  <Value>
11

>  <Unit>
nM

>  <Type>
Ki

>  <pValue>
7.96

>  <Ligand Efficiency>
0.45

>  <Binding Efficiency>
24.38

>  <Surface Efficiency>
13.51

>  <Assay Index>
297701

>  <Assay Category>


>  <Assay Organism>
Homo sapiens

>  <Target ID>
19

>  <Target Name>
Estrogen receptor alpha

>  <Target Organism>
Homo sapiens

>  <Target Description>
Target is a single protein chain

>  <Sequence Accession>
P03372

>  <Reference>
Bioorg Med Chem Lett 17 (18), 5082-5085 (2007)

>  <Pubmed ID>
17662603

>  <DOI>
10.1016/j.bmcl.2007.07.009

$$$$
400562
Actelion Java MolfileCreator 1.0

 22 25  0  0  1  0  0  0  0  0999 V2000
    0.0000   -0.0000   -0.0000 O   0  0  0  0  0  0  0  0  0  0  0  0
   -1.3058    0.7597   -0.0000 C   0  0  0  0  0  0  0  0  0  0  0  0
    1.2939    0.7597   -0.0000 C   0  0  0  0  0  0  0  0  0  0  0  0
   -1.3176    2.2792   -0.0000 C   0  0  0  0  0  0  0  0  0  0  0  0
   -2.6115    0.0237   -0.0000 C   0  0  0  0  0  0  0  0  0  0  0  0
    2.5759    0.0237   -0.0000 C   0  0  0  0  0  0  0  0  0  0  0  0
    1.2820    2.2792   -0.0000 C   0  0  0  0  0  0  0  0  0  0  0  0
   -2.6234    3.0270   -0.0000 C   0  0  0  0  0  0  0  0  0  0  0  0
   -0.0356    3.0508   -0.0000 C   0  0  0  0  0  0  0  0  0  0  0  0
   -3.9173    0.7835   -0.0000 C   0  0  0  0  0  0  0  0  0  0  0  0
   -2.6234   -1.4601   -0.0000 C   0  0  0  0  0  0  0  0  0  0  0  0
    2.5641   -1.4601   -0.0000 C   0  0  0  0  0  0  0  0  0  0  0  0
    3.8461    0.7835   -0.0000 C   0  0  0  0  0  0  0  0  0  0  0  0
    2.3979    3.2882   -0.0000 C   0  0  0  0  0  0  0  0  0  0  0  0
   -3.9292    2.2910   -0.0000 C   0  0  0  0  0  0  0  0  0  0  0  0
    0.2730    4.5346   -0.0000 C   0  0  0  0  0  0  0  0  0  0  0  0
    3.8461   -2.1961   -0.0000 C   0  0  0  0  0  0  0  0  0  0  0  0
    5.1281    0.0594   -0.0000 C   0  0  0  0  0  0  0  0  0  0  0  0
    1.7806    4.6770   -0.0000 C   0  0  0  0  0  0  0  0  0  0  0  0
   -5.2350    3.0508   -0.0000 O   0  0  0  0  0  0  0  0  0  0  0  0
    5.1281   -1.4363   -0.0000 C   0  0  0  0  0  0  0  0  0  0  0  0
    6.4102   -2.1723   -0.0000 O   0  0  0  0  0  0  0  0  0  0  0  0
  1  2  1  0  0  0  0
  1  3  1  0  0  0  0
  2  4  2  0  0  0  0
  2  5  1  0  0  0  0
  3  6  1  6  0  0  0
  3  7  1  0  0  0  0
  4  8  1  0  0  0  0
  4  9  1  0  0  0  0
  5 10  2  0  0  0  0
  5 11  1  0  0  0  0
  6 12  2  0  0  0  0
  6 13  1  0  0  0  0
  7 14  1  6  0  0  0
  8 15  2  0  0  0  0
  9 16  1  6  0  0  0
 12 17  1  0  0  0  0
 13 18  2  0  0  0  0
 14 19  1  0  0  0  0
 15 20  1  0  0  0  0
 17 21  2  0  0  0  0
 21 22  1  0  0  0  0
  7  9  1  0  0  0  0
 10 15  1  0  0  0  0
 16 19  1  0  0  0  0
 18 21  1  0  0  0  0
M  END
>  <MolRegNo>
400562

>  <m>
=

>  <Value>
2.82

>  <Unit>
nM

>  <Type>
Ki

>  <pValue>
8.55

>  <Ligand Efficiency>
0.53

>  <Binding Efficiency>
28.85

>  <Surface Efficiency>
17.21

>  <Assay Index>
297701

>  <Assay Category>


>  <Assay Organism>
Homo sapiens

>  <Target ID>
19

>  <Target Name>
Estrogen receptor alpha

>  <Target Organism>
Homo sapiens

>  <Target Description>
Target is a single protein chain

>  <Sequence Accession>
P03372

>  <Reference>
Bioorg Med Chem Lett 17 (18), 5082-5085 (2007)

>  <Pubmed ID>
17662603

>  <DOI>
10.1016/j.bmcl.2007.07.009

$$$$
398425
Actelion Java MolfileCreator 1.0

 26 29  0  0  1  0  0  0  0  0999 V2000
    0.0000   -0.0000   -0.0000 F   0  0  0  0  0  0  0  0  0  0  0  0
   -1.5001   -0.0952   -0.0000 C   0  0  0  0  0  0  0  0  0  0  0  0
   -1.9048    1.3691   -0.0000 F   0  0  0  0  0  0  0  0  0  0  0  0
   -3.0239   -0.2381   -0.0000 C   0  0  0  0  0  0  0  0  0  0  0  0
   -0.8929   -1.4643   -0.0000 C   0  0  0  0  0  0  0  0  0  0  0  0
   -3.3454   -1.7144   -0.0000 C   0  0  0  0  0  0  0  0  0  0  0  0
   -2.0358   -2.4644   -0.0000 C   0  0  0  0  0  0  0  0  0  0  0  0
   -4.6549   -2.4644   -0.0000 C   0  0  0  0  0  0  0  0  0  0  0  0
   -2.0477   -3.9644   -0.0000 C   0  0  0  0  0  0  0  0  0  0  0  0
   -4.6549   -3.9644   -0.0000 C   0  0  0  0  0  0  0  0  0  0  0  0
   -5.9645   -1.7144   -0.0000 C   0  0  0  0  0  0  0  0  0  0  0  0
   -3.3692   -4.7145   -0.0000 O   0  0  0  0  0  0  0  0  0  0  0  0
   -0.7619   -4.6907   -0.0000 C   0  0  0  0  0  0  0  0  0  0  0  0
   -5.9645   -4.7026   -0.0000 C   0  0  0  0  0  0  0  0  0  0  0  0
   -7.2741   -2.4525   -0.0000 C   0  0  0  0  0  0  0  0  0  0  0  0
   -0.7738   -6.1788   -0.0000 C   0  0  0  0  0  0  0  0  0  0  0  0
    0.5119   -3.9287   -0.0000 C   0  0  0  0  0  0  0  0  0  0  0  0
   -7.2741   -3.9406   -0.0000 C   0  0  0  0  0  0  0  0  0  0  0  0
   -5.9764   -6.1907   -0.0000 C   0  0  0  0  0  0  0  0  0  0  0  0
   -8.5837   -1.6905   -0.0000 O   0  0  0  0  0  0  0  0  0  0  0  0
    0.5119   -6.9169   -0.0000 C   0  0  0  0  0  0  0  0  0  0  0  0
    1.7977   -4.6549   -0.0000 C   0  0  0  0  0  0  0  0  0  0  0  0
   -7.2860   -6.9288   -0.0000 O   0  0  0  0  0  0  0  0  0  0  0  0
    1.7977   -6.1550   -0.0000 C   0  0  0  0  0  0  0  0  0  0  0  0
   -7.2979   -8.4170   -0.0000 C   0  0  0  0  0  0  0  0  0  0  0  0
    3.0835   -6.8812   -0.0000 O   0  0  0  0  0  0  0  0  0  0  0  0
  1  2  1  0  0  0  0
  2  3  1  0  0  0  0
  2  4  1  0  0  0  0
  2  5  1  0  0  0  0
  6  4  1  1  0  0  0
  7  5  1  1  0  0  0
  6  8  1  0  0  0  0
  7  9  1  0  0  0  0
  8 10  2  0  0  0  0
  8 11  1  0  0  0  0
  9 12  1  0  0  0  0
  9 13  1  1  0  0  0
 10 14  1  0  0  0  0
 11 15  2  0  0  0  0
 13 16  2  0  0  0  0
 13 17  1  0  0  0  0
 14 18  2  0  0  0  0
 14 19  1  0  0  0  0
 15 20  1  0  0  0  0
 16 21  1  0  0  0  0
 17 22  2  0  0  0  0
 19 23  1  0  0  0  0
 21 24  2  0  0  0  0
 23 25  1  0  0  0  0
 24 26  1  0  0  0  0
  6  7  1  0  0  0  0
 10 12  1  0  0  0  0
 15 18  1  0  0  0  0
 22 24  1  0  0  0  0
M  END
>  <MolRegNo>
398425

>  <m>
=

>  <Value>
198

>  <Unit>
nM

>  <Type>
Ki

>  <pValue>
6.7

>  <Ligand Efficiency>
0.35

>  <Binding Efficiency>
18.5

>  <Surface Efficiency>
11.38

>  <Assay Index>
298226

>  <Assay Category>


>  <Assay Organism>


>  <Target ID>
19

>  <Target Name>
Estrogen receptor alpha

>  <Target Organism>
Homo sapiens

>  <Target Description>
Target is a single protein chain

>  <Sequence Accession>
P03372

>  <Reference>
Bioorg Med Chem Lett 17 (20), 5563-5566 (2007)

>  <Pubmed ID>
17804226

>  <DOI>
10.1016/j.bmcl.2007.08.009

$$$$
398423
Actelion Java MolfileCreator 1.0

 26 29  0  0  0  0  0  0  0  0999 V2000
    0.0000   -0.0000   -0.0000 F   0  0  0  0  0  0  0  0  0  0  0  0
   -1.4863    0.2831   -0.0000 C   0  0  0  0  0  0  0  0  0  0  0  0
   -1.0852    1.7340   -0.0000 F   0  0  0  0  0  0  0  0  0  0  0  0
   -2.8900    0.8611   -0.0000 C   0  0  0  0  0  0  0  0  0  0  0  0
   -1.6042   -1.2032   -0.0000 C   0  0  0  0  0  0  0  0  0  0  0  0
   -3.8690   -0.2713   -0.0000 C   0  0  0  0  0  0  0  0  0  0  0  0
   -3.0669   -1.5453   -0.0000 C   0  0  0  0  0  0  0  0  0  0  0  0
   -5.3789   -0.3067   -0.0000 C   0  0  0  0  0  0  0  0  0  0  0  0
   -3.7865   -2.8546   -0.0000 C   0  0  0  0  0  0  0  0  0  0  0  0
   -6.0985   -1.6160   -0.0000 C   0  0  0  0  0  0  0  0  0  0  0  0
   -6.1810    0.9791   -0.0000 C   0  0  0  0  0  0  0  0  0  0  0  0
   -5.2963   -2.8900   -0.0000 O   0  0  0  0  0  0  0  0  0  0  0  0
   -3.0079   -4.1168   -0.0000 C   0  0  0  0  0  0  0  0  0  0  0  0
   -7.6083   -1.6514   -0.0000 C   0  0  0  0  0  0  0  0  0  0  0  0
   -7.6909    0.9437   -0.0000 C   0  0  0  0  0  0  0  0  0  0  0  0
   -1.5217   -4.0578   -0.0000 C   0  0  0  0  0  0  0  0  0  0  0  0
   -3.7275   -5.4261   -0.0000 C   0  0  0  0  0  0  0  0  0  0  0  0
   -8.4105   -0.3657   -0.0000 C   0  0  0  0  0  0  0  0  0  0  0  0
   -8.3279   -2.9608   -0.0000 C   0  0  0  0  0  0  0  0  0  0  0  0
   -8.4930    2.2294   -0.0000 O   0  0  0  0  0  0  0  0  0  0  0  0
   -0.7431   -5.3199   -0.0000 C   0  0  0  0  0  0  0  0  0  0  0  0
   -2.9490   -6.6883   -0.0000 C   0  0  0  0  0  0  0  0  0  0  0  0
   -9.8378   -2.9962   -0.0000 O   0  0  0  0  0  0  0  0  0  0  0  0
   -1.4627   -6.6293   -0.0000 C   0  0  0  0  0  0  0  0  0  0  0  0
  -10.5573   -4.3055   -0.0000 C   0  0  0  0  0  0  0  0  0  0  0  0
   -0.6842   -7.8914   -0.0000 O   0  0  0  0  0  0  0  0  0  0  0  0
  1  2  1  0  0  0  0
  2  3  1  0  0  0  0
  2  4  1  0  0  0  0
  2  5  1  0  0  0  0
  6  4  1  1  0  0  0
  7  5  1  1  0  0  0
  6  8  1  0  0  0  0
  7  9  1  0  0  0  0
  8 10  2  0  0  0  0
  8 11  1  0  0  0  0
  9 12  1  0  0  0  0
  9 13  1  1  0  0  0
 10 14  1  0  0  0  0
 11 15  2  0  0  0  0
 13 16  2  0  0  0  0
 13 17  1  0  0  0  0
 14 18  2  0  0  0  0
 14 19  1  0  0  0  0
 15 20  1  0  0  0  0
 16 21  1  0  0  0  0
 17 22  2  0  0  0  0
 19 23  1  0  0  0  0
 21 24  2  0  0  0  0
 23 25  1  0  0  0  0
 24 26  1  0  0  0  0
  6  7  1  0  0  0  0
 10 12  1  0  0  0  0
 15 18  1  0  0  0  0
 22 24  1  0  0  0  0
M  END
>  <MolRegNo>
398423

>  <m>
=

>  <Value>
43.8

>  <Unit>
nM

>  <Type>
Ki

>  <pValue>
7.36

>  <Ligand Efficiency>
0.39

>  <Binding Efficiency>
20.31

>  <Surface Efficiency>
12.49

>  <Assay Index>
298226

>  <Assay Category>


>  <Assay Organism>


>  <Target ID>
19

>  <Target Name>
Estrogen receptor alpha

>  <Target Organism>
Homo sapiens

>  <Target Description>
Target is a single protein chain

>  <Sequence Accession>
P03372

>  <Reference>
Bioorg Med Chem Lett 17 (20), 5563-5566 (2007)

>  <Pubmed ID>
17804226

>  <DOI>
10.1016/j.bmcl.2007.08.009

$$$$
413408
Actelion Java MolfileCreator 1.0

 62 70  0  0  1  0  0  0  0  0999 V2000
    0.0000   -0.0000   -0.0000 S   0  0  0  0  0  0  0  0  0  0  0  0
   -1.3774   -0.6056   -0.0000 O   0  0  0  0  0  0  0  0  0  0  0  0
    1.3536    0.6056   -0.0000 O   0  0  0  0  0  0  0  0  0  0  0  0
   -0.4868    1.4249   -0.0000 O   0  0  0  0  0  0  0  0  0  0  0  0
    0.7243   -1.2705   -0.0000 C   0  0  0  0  0  0  0  0  0  0  0  0
   -1.9592    1.7336   -0.0000 C   0  0  0  0  0  0  0  0  0  0  0  0
    2.1848   -1.2587   -0.0000 C   0  0  0  0  0  0  0  0  0  0  0  0
   -0.0356   -2.5411   -0.0000 C   0  0  0  0  0  0  0  0  0  0  0  0
   -2.4461    3.1585   -0.0000 C   0  0  0  0  0  0  0  0  0  0  0  0
   -2.9566    0.6175   -0.0000 C   0  0  0  0  0  0  0  0  0  0  0  0
    2.9092   -2.5292   -0.0000 C   0  0  0  0  0  0  0  0  0  0  0  0
    0.6887   -3.8116   -0.0000 C   0  0  0  0  0  0  0  0  0  0  0  0
   -3.9184    3.4672   -0.0000 C   0  0  0  0  0  0  0  0  0  0  0  0
   -4.4290    0.9262   -0.0000 C   0  0  0  0  0  0  0  0  0  0  0  0
    2.1492   -3.7997   -0.0000 C   0  0  0  0  0  0  0  0  0  0  0  0
   -4.6903    4.7615   -0.0000 O   0  0  0  0  0  0  0  0  0  0  0  0
   -4.9159    2.3629   -0.0000 C   0  0  0  0  0  0  0  0  0  0  0  0
    2.8854   -5.0821   -0.0000 C   0  0  0  0  0  0  0  0  0  0  0  0
   -6.1627    4.4528   -0.0000 C   0  0  0  0  0  0  0  0  0  0  0  0
   -6.2933    2.9566   -0.0000 C   0  0  0  0  0  0  0  0  0  0  0  0
   -7.4569    5.2246   -0.0000 C   0  0  0  0  0  0  0  0  0  0  0  0
   -7.5875    2.2086   -0.0000 C   0  0  0  0  0  0  0  0  0  0  0  0
   -7.4451    6.7326   -0.0000 C   0  0  0  0  0  0  0  0  0  0  0  0
   -8.7631    4.5122   -0.0000 C   0  0  0  0  0  0  0  0  0  0  0  0
   -8.8818    1.4605   -0.0000 C   0  0  0  0  0  0  0  0  0  0  0  0
   -8.7393    7.5044   -0.0000 C   0  0  0  0  0  0  0  0  0  0  0  0
  -10.0574    5.2840   -0.0000 C   0  0  0  0  0  0  0  0  0  0  0  0
  -10.1880    0.7124   -0.0000 C   0  0  0  0  0  0  0  0  0  0  0  0
  -10.0574    6.7920   -0.0000 C   0  0  0  0  0  0  0  0  0  0  0  0
  -11.4941    1.4605   -0.0000 C   0  0  0  0  0  0  0  0  0  0  0  0
  -11.3516    7.5638   -0.0000 O   0  0  0  0  0  0  0  0  0  0  0  0
  -12.8003    0.7243   -0.0000 C   0  0  0  0  0  0  0  0  0  0  0  0
  -11.3516    9.0718   -0.0000 C   0  0  0  0  0  0  0  0  0  0  0  0
  -14.1064    1.4724   -0.0000 C   0  0  0  0  0  0  0  0  0  0  0  0
  -12.6459    9.8436   -0.0000 C   0  0  0  0  0  0  0  0  0  0  0  0
  -15.4126    0.7243   -0.0000 C   0  0  0  0  0  0  0  0  0  0  0  0
  -12.6340   11.3516   -0.0000 C   0  0  0  0  0  0  0  0  0  0  0  0
  -13.9521    9.1193   -0.0000 C   0  0  0  0  0  0  0  0  0  0  0  0
  -16.7187   -0.0237   -0.0000 C   0  0  0  0  0  0  0  0  0  0  0  0
  -13.9283   12.1234   -0.0000 C   0  0  0  0  0  0  0  0  0  0  0  0
  -15.2463    9.8911   -0.0000 C   0  0  0  0  0  0  0  0  0  0  0  0
  -18.0249   -0.7718   -0.0000 C   0  0  0  0  0  0  0  0  0  0  0  0
  -15.2463   11.3991   -0.0000 C   0  0  0  0  0  0  0  0  0  0  0  0
  -18.4286    0.6887   -0.0000 O   0  0  0  0  0  0  0  0  0  0  0  0
  -19.4735   -1.2112   -0.0000 C   0  0  0  0  0  0  0  0  0  0  0  0
  -17.1581   -1.9830   -0.0000 C   0  0  0  0  0  0  0  0  0  0  0  0
  -19.4972   -2.7073   -0.0000 C   0  0  0  0  0  0  0  0  0  0  0  0
  -20.7915   -0.4393   -0.0000 C   0  0  0  0  0  0  0  0  0  0  0  0
  -19.4972    0.2969   -0.0000 C   0  0  0  0  0  0  0  0  0  0  0  0
  -18.0724   -3.1823   -0.0000 C   0  0  0  0  0  0  0  0  0  0  0  0
  -20.8034   -3.4554   -0.0000 C   0  0  0  0  0  0  0  0  0  0  0  0
  -22.1214   -1.1755   -0.0000 C   0  0  0  0  0  0  0  0  0  0  0  0
  -22.1214   -2.6835   -0.0000 C   0  0  0  0  0  0  0  0  0  0  0  0
  -20.8034   -4.9396   -0.0000 C   0  0  0  0  0  0  0  0  0  0  0  0
  -23.4276   -3.4316   -0.0000 C   0  0  0  0  0  0  0  0  0  0  0  0
  -22.1214   -5.6877   -0.0000 C   0  0  0  0  0  0  0  0  0  0  0  0
  -23.4276   -4.9277   -0.0000 C   0  0  0  0  0  0  0  0  0  0  0  0
  -24.7337   -2.6835   -0.0000 C   0  0  0  0  0  0  0  0  0  0  0  0
  -24.7337   -5.6639   -0.0000 C   0  0  0  0  0  0  0  0  0  0  0  0
  -26.0399   -3.4197   -0.0000 C   0  0  0  0  0  0  0  0  0  0  0  0
  -26.0399   -4.9040   -0.0000 C   0  0  0  0  0  0  0  0  0  0  0  0
  -27.3460   -5.6402   -0.0000 O   0  0  0  0  0  0  0  0  0  0  0  0
  1  2  2  0  0  0  0
  1  3  2  0  0  0  0
  1  4  1  0  0  0  0
  1  5  1  0  0  0  0
  4  6  1  0  0  0  0
  5  7  2  0  0  0  0
  5  8  1  0  0  0  0
  6  9  2  0  0  0  0
  6 10  1  0  0  0  0
  7 11  1  0  0  0  0
  8 12  2  0  0  0  0
  9 13  1  0  0  0  0
 10 14  2  0  0  0  0
 11 15  2  0  0  0  0
 13 16  1  0  0  0  0
 13 17  2  0  0  0  0
 15 18  1  0  0  0  0
 16 19  1  0  0  0  0
 17 20  1  0  0  0  0
 19 21  1  0  0  0  0
 20 22  1  0  0  0  0
 21 23  2  0  0  0  0
 21 24  1  0  0  0  0
 22 25  3  0  0  0  0
 23 26  1  0  0  0  0
 24 27  2  0  0  0  0
 25 28  1  0  0  0  0
 26 29  2  0  0  0  0
 28 30  1  0  0  0  0
 29 31  1  0  0  0  0
 30 32  1  0  0  0  0
 31 33  1  0  0  0  0
 32 34  1  0  0  0  0
 33 35  1  0  0  0  0
 34 36  1  0  0  0  0
 35 37  2  0  0  0  0
 35 38  1  0  0  0  0
 36 39  3  0  0  0  0
 37 40  1  0  0  0  0
 38 41  2  0  0  0  0
 39 42  1  0  0  0  0
 40 43  2  0  0  0  0
 42 44  1  1  0  0  0
 42 45  1  0  0  0  0
 42 46  1  0  0  0  0
 45 47  1  0  0  0  0
 45 48  1  0  0  0  0
 45 49  1  1  0  0  0
 46 50  1  0  0  0  0
 47 51  1  0  0  0  0
 48 52  1  0  0  0  0
 51 53  1  0  0  0  0
 51 54  1  6  0  0  0
 53 55  1  0  0  0  0
 54 56  1  0  0  0  0
 55 57  2  0  0  0  0
 55 58  1  0  0  0  0
 57 59  1  0  0  0  0
 58 60  2  0  0  0  0
 59 61  2  0  0  0  0
 61 62  1  0  0  0  0
 12 15  1  0  0  0  0
 14 17  1  0  0  0  0
 19 20  2  0  0  0  0
 27 29  1  0  0  0  0
 41 43  1  0  0  0  0
 47 50  1  1  0  0  0
 53 52  1  1  0  0  0
 56 57  1  0  0  0  0
 60 61  1  0  0  0  0
M  END
>  <MolRegNo>
413408

>  <m>
=

>  <Value>
17879

>  <Unit>
nM

>  <Type>
Ki

>  <pValue>
4.75

>  <Ligand Efficiency>
0.1

>  <Binding Efficiency>
5.62

>  <Surface Efficiency>
4.47

>  <Assay Index>
304003

>  <Assay Category>


>  <Assay Organism>


>  <Target ID>
19

>  <Target Name>
Estrogen receptor alpha

>  <Target Organism>
Homo sapiens

>  <Target Description>
Target is a single protein chain

>  <Sequence Accession>
P03372

>  <Reference>
Bioorg Med Chem Lett 17 (11), 3212-3216 (2007)

>  <Pubmed ID>
17379515

>  <DOI>
10.1016/j.bmcl.2007.03.016

$$$$
413407
Actelion Java MolfileCreator 1.0

 45 51  0  0  1  0  0  0  0  0999 V2000
    0.0000   -0.0000   -0.0000 O   0  0  0  0  0  0  0  0  0  0  0  0
   -1.2938   -0.7478   -0.0000 C   0  0  0  0  0  0  0  0  0  0  0  0
   -1.2938   -2.2197   -0.0000 C   0  0  0  0  0  0  0  0  0  0  0  0
   -2.5995   -0.0000   -0.0000 C   0  0  0  0  0  0  0  0  0  0  0  0
   -2.5877   -2.9675   -0.0000 C   0  0  0  0  0  0  0  0  0  0  0  0
    0.0000   -2.9438   -0.0000 C   0  0  0  0  0  0  0  0  0  0  0  0
   -3.8934   -0.7478   -0.0000 C   0  0  0  0  0  0  0  0  0  0  0  0
   -3.8934   -2.2316   -0.0000 O   0  0  0  0  0  0  0  0  0  0  0  0
   -2.5758   -4.4394   -0.0000 C   0  0  0  0  0  0  0  0  0  0  0  0
    0.0000   -4.4275   -0.0000 C   0  0  0  0  0  0  0  0  0  0  0  0
   -5.1991   -0.0119   -0.0000 C   0  0  0  0  0  0  0  0  0  0  0  0
   -3.8696   -5.1872   -0.0000 C   0  0  0  0  0  0  0  0  0  0  0  0
   -1.2938   -5.1753   -0.0000 C   0  0  0  0  0  0  0  0  0  0  0  0
   -6.4929   -0.7597   -0.0000 C   0  0  0  0  0  0  0  0  0  0  0  0
   -5.2228    1.4956   -0.0000 C   0  0  0  0  0  0  0  0  0  0  0  0
   -5.1634   -5.9350   -0.0000 C   0  0  0  0  0  0  0  0  0  0  0  0
   -7.7986   -0.0237   -0.0000 C   0  0  0  0  0  0  0  0  0  0  0  0
   -6.5285    2.2434   -0.0000 C   0  0  0  0  0  0  0  0  0  0  0  0
   -6.4691   -6.6709   -0.0000 C   0  0  0  0  0  0  0  0  0  0  0  0
   -7.8342    1.4837   -0.0000 C   0  0  0  0  0  0  0  0  0  0  0  0
   -7.7748   -5.9231   -0.0000 C   0  0  0  0  0  0  0  0  0  0  0  0
   -9.0805   -6.6591   -0.0000 C   0  0  0  0  0  0  0  0  0  0  0  0
  -10.3862   -5.9113   -0.0000 C   0  0  0  0  0  0  0  0  0  0  0  0
  -11.6919   -6.6472   -0.0000 C   0  0  0  0  0  0  0  0  0  0  0  0
  -12.9976   -7.3950   -0.0000 C   0  0  0  0  0  0  0  0  0  0  0  0
  -14.3033   -8.1428   -0.0000 C   0  0  0  0  0  0  0  0  0  0  0  0
  -14.7069   -6.6828   -0.0000 O   0  0  0  0  0  0  0  0  0  0  0  0
  -15.7515   -8.5820   -0.0000 C   0  0  0  0  0  0  0  0  0  0  0  0
  -13.4368   -9.3535   -0.0000 C   0  0  0  0  0  0  0  0  0  0  0  0
  -15.7752  -10.0776   -0.0000 C   0  0  0  0  0  0  0  0  0  0  0  0
  -17.0690   -7.8104   -0.0000 C   0  0  0  0  0  0  0  0  0  0  0  0
  -15.7752   -7.0745   -0.0000 C   0  0  0  0  0  0  0  0  0  0  0  0
  -14.3508  -10.5524   -0.0000 C   0  0  0  0  0  0  0  0  0  0  0  0
  -17.0809  -10.8254   -0.0000 C   0  0  0  0  0  0  0  0  0  0  0  0
  -18.3985   -8.5464   -0.0000 C   0  0  0  0  0  0  0  0  0  0  0  0
  -18.3985  -10.0539   -0.0000 C   0  0  0  0  0  0  0  0  0  0  0  0
  -17.0809  -12.3092   -0.0000 C   0  0  0  0  0  0  0  0  0  0  0  0
  -19.7042  -10.8017   -0.0000 C   0  0  0  0  0  0  0  0  0  0  0  0
  -18.3985  -13.0570   -0.0000 C   0  0  0  0  0  0  0  0  0  0  0  0
  -19.7042  -12.2973   -0.0000 C   0  0  0  0  0  0  0  0  0  0  0  0
  -21.0099  -10.0539   -0.0000 C   0  0  0  0  0  0  0  0  0  0  0  0
  -21.0099  -13.0332   -0.0000 C   0  0  0  0  0  0  0  0  0  0  0  0
  -22.3156  -10.7898   -0.0000 C   0  0  0  0  0  0  0  0  0  0  0  0
  -22.3156  -12.2736   -0.0000 C   0  0  0  0  0  0  0  0  0  0  0  0
  -23.6213  -13.0095   -0.0000 O   0  0  0  0  0  0  0  0  0  0  0  0
  1  2  2  0  0  0  0
  2  3  1  0  0  0  0
  2  4  1  0  0  0  0
  3  5  2  0  0  0  0
  3  6  1  0  0  0  0
  4  7  2  0  0  0  0
  5  8  1  0  0  0  0
  5  9  1  0  0  0  0
  6 10  2  0  0  0  0
  7 11  1  0  0  0  0
  9 12  1  0  0  0  0
  9 13  2  0  0  0  0
 11 14  2  0  0  0  0
 11 15  1  0  0  0  0
 12 16  3  0  0  0  0
 14 17  1  0  0  0  0
 15 18  2  0  0  0  0
 16 19  1  0  0  0  0
 17 20  2  0  0  0  0
 19 21  1  0  0  0  0
 21 22  1  0  0  0  0
 22 23  1  0  0  0  0
 23 24  1  0  0  0  0
 24 25  3  0  0  0  0
 25 26  1  0  0  0  0
 26 27  1  1  0  0  0
 26 28  1  0  0  0  0
 26 29  1  0  0  0  0
 28 30  1  0  0  0  0
 28 31  1  0  0  0  0
 28 32  1  1  0  0  0
 29 33  1  0  0  0  0
 30 34  1  0  0  0  0
 31 35  1  0  0  0  0
 34 36  1  0  0  0  0
 34 37  1  6  0  0  0
 36 38  1  0  0  0  0
 37 39  1  0  0  0  0
 38 40  2  0  0  0  0
 38 41  1  0  0  0  0
 40 42  1  0  0  0  0
 41 43  2  0  0  0  0
 42 44  2  0  0  0  0
 44 45  1  0  0  0  0
  7  8  1  0  0  0  0
 10 13  1  0  0  0  0
 18 20  1  0  0  0  0
 30 33  1  1  0  0  0
 36 35  1  1  0  0  0
 39 40  1  0  0  0  0
 43 44  1  0  0  0  0
M  END
>  <MolRegNo>
413407

>  <m>
=

>  <Value>
382

>  <Unit>
nM

>  <Type>
Ki

>  <pValue>
6.42

>  <Ligand Efficiency>
0.19

>  <Binding Efficiency>
10.75

>  <Surface Efficiency>
9.08

>  <Assay Index>
304003

>  <Assay Category>


>  <Assay Organism>


>  <Target ID>
19

>  <Target Name>
Estrogen receptor alpha

>  <Target Organism>
Homo sapiens

>  <Target Description>
Target is a single protein chain

>  <Sequence Accession>
P03372

>  <Reference>
Bioorg Med Chem Lett 17 (11), 3212-3216 (2007)

>  <Pubmed ID>
17379515

>  <DOI>
10.1016/j.bmcl.2007.03.016

$$$$
413406
Actelion Java MolfileCreator 1.0

 45 51  0  0  1  0  0  0  0  0999 V2000
    0.0000   -0.0000   -0.0000 O   0  0  0  0  0  0  0  0  0  0  0  0
    1.2849   -0.7257   -0.0000 C   0  0  0  0  0  0  0  0  0  0  0  0
    1.2849   -2.2009   -0.0000 C   0  0  0  0  0  0  0  0  0  0  0  0
    2.5697    0.0476   -0.0000 C   0  0  0  0  0  0  0  0  0  0  0  0
   -0.0119   -2.9504   -0.0000 C   0  0  0  0  0  0  0  0  0  0  0  0
    2.5697   -2.9385   -0.0000 C   0  0  0  0  0  0  0  0  0  0  0  0
    3.8546   -0.6781   -0.0000 C   0  0  0  0  0  0  0  0  0  0  0  0
    2.5459    1.5466   -0.0000 C   0  0  0  0  0  0  0  0  0  0  0  0
   -1.3087   -3.6999   -0.0000 C   0  0  0  0  0  0  0  0  0  0  0  0
    3.8427   -2.1771   -0.0000 O   0  0  0  0  0  0  0  0  0  0  0  0
    2.5697   -4.4256   -0.0000 C   0  0  0  0  0  0  0  0  0  0  0  0
    5.1275    0.0952   -0.0000 C   0  0  0  0  0  0  0  0  0  0  0  0
    3.8189    2.3199   -0.0000 C   0  0  0  0  0  0  0  0  0  0  0  0
   -2.6173   -4.4494   -0.0000 C   0  0  0  0  0  0  0  0  0  0  0  0
    1.2611   -5.1632   -0.0000 C   0  0  0  0  0  0  0  0  0  0  0  0
    3.8546   -5.1513   -0.0000 C   0  0  0  0  0  0  0  0  0  0  0  0
    5.1037    1.6061   -0.0000 C   0  0  0  0  0  0  0  0  0  0  0  0
   -3.9260   -3.6999   -0.0000 C   0  0  0  0  0  0  0  0  0  0  0  0
    1.2611   -6.6503   -0.0000 C   0  0  0  0  0  0  0  0  0  0  0  0
    3.8546   -6.6265   -0.0000 C   0  0  0  0  0  0  0  0  0  0  0  0
   -5.2346   -4.4375   -0.0000 C   0  0  0  0  0  0  0  0  0  0  0  0
    2.5459   -7.3879   -0.0000 C   0  0  0  0  0  0  0  0  0  0  0  0
   -6.5433   -3.6880   -0.0000 C   0  0  0  0  0  0  0  0  0  0  0  0
   -7.8519   -4.4256   -0.0000 C   0  0  0  0  0  0  0  0  0  0  0  0
   -9.1606   -5.1751   -0.0000 C   0  0  0  0  0  0  0  0  0  0  0  0
  -10.4573   -5.9246   -0.0000 C   0  0  0  0  0  0  0  0  0  0  0  0
  -10.8618   -4.4613   -0.0000 O   0  0  0  0  0  0  0  0  0  0  0  0
  -11.9087   -6.3648   -0.0000 C   0  0  0  0  0  0  0  0  0  0  0  0
   -9.5888   -7.1381   -0.0000 C   0  0  0  0  0  0  0  0  0  0  0  0
  -11.9325   -7.8638   -0.0000 C   0  0  0  0  0  0  0  0  0  0  0  0
  -13.2293   -5.5915   -0.0000 C   0  0  0  0  0  0  0  0  0  0  0  0
  -11.9325   -4.8539   -0.0000 C   0  0  0  0  0  0  0  0  0  0  0  0
  -10.5049   -8.3397   -0.0000 C   0  0  0  0  0  0  0  0  0  0  0  0
  -13.2412   -8.6133   -0.0000 C   0  0  0  0  0  0  0  0  0  0  0  0
  -14.5617   -6.3291   -0.0000 C   0  0  0  0  0  0  0  0  0  0  0  0
  -14.5617   -7.8400   -0.0000 C   0  0  0  0  0  0  0  0  0  0  0  0
  -13.2412  -10.1004   -0.0000 C   0  0  0  0  0  0  0  0  0  0  0  0
  -15.8704   -8.5895   -0.0000 C   0  0  0  0  0  0  0  0  0  0  0  0
  -14.5617  -10.8499   -0.0000 C   0  0  0  0  0  0  0  0  0  0  0  0
  -15.8704  -10.0885   -0.0000 C   0  0  0  0  0  0  0  0  0  0  0  0
  -17.1790   -7.8400   -0.0000 C   0  0  0  0  0  0  0  0  0  0  0  0
  -17.1790  -10.8261   -0.0000 C   0  0  0  0  0  0  0  0  0  0  0  0
  -18.4877   -8.5776   -0.0000 C   0  0  0  0  0  0  0  0  0  0  0  0
  -18.4877  -10.0647   -0.0000 C   0  0  0  0  0  0  0  0  0  0  0  0
  -19.7963  -10.8023   -0.0000 O   0  0  0  0  0  0  0  0  0  0  0  0
  1  2  2  0  0  0  0
  2  3  1  0  0  0  0
  2  4  1  0  0  0  0
  3  5  1  0  0  0  0
  3  6  2  0  0  0  0
  4  7  2  0  0  0  0
  4  8  1  0  0  0  0
  5  9  3  0  0  0  0
  6 10  1  0  0  0  0
  6 11  1  0  0  0  0
  7 12  1  0  0  0  0
  8 13  2  0  0  0  0
  9 14  1  0  0  0  0
 11 15  2  0  0  0  0
 11 16  1  0  0  0  0
 12 17  2  0  0  0  0
 14 18  1  0  0  0  0
 15 19  1  0  0  0  0
 16 20  2  0  0  0  0
 18 21  1  0  0  0  0
 19 22  2  0  0  0  0
 21 23  1  0  0  0  0
 23 24  1  0  0  0  0
 24 25  3  0  0  0  0
 25 26  1  0  0  0  0
 26 27  1  1  0  0  0
 26 28  1  0  0  0  0
 26 29  1  0  0  0  0
 28 30  1  0  0  0  0
 28 31  1  0  0  0  0
 28 32  1  1  0  0  0
 29 33  1  0  0  0  0
 30 34  1  0  0  0  0
 31 35  1  0  0  0  0
 34 36  1  0  0  0  0
 34 37  1  6  0  0  0
 36 38  1  0  0  0  0
 37 39  1  0  0  0  0
 38 40  2  0  0  0  0
 38 41  1  0  0  0  0
 40 42  1  0  0  0  0
 41 43  2  0  0  0  0
 42 44  2  0  0  0  0
 44 45  1  0  0  0  0
  7 10  1  0  0  0  0
 13 17  1  0  0  0  0
 20 22  1  0  0  0  0
 30 33  1  1  0  0  0
 36 35  1  1  0  0  0
 39 40  1  0  0  0  0
 43 44  1  0  0  0  0
M  END
>  <MolRegNo>
413406

>  <m>
=

>  <Value>
63052

>  <Unit>
nM

>  <Type>
Ki

>  <pValue>
4.2

>  <Ligand Efficiency>
0.13

>  <Binding Efficiency>
7.04

>  <Surface Efficiency>
5.94

>  <Assay Index>
304003

>  <Assay Category>


>  <Assay Organism>


>  <Target ID>
19

>  <Target Name>
Estrogen receptor alpha

>  <Target Organism>
Homo sapiens

>  <Target Description>
Target is a single protein chain

>  <Sequence Accession>
P03372

>  <Reference>
Bioorg Med Chem Lett 17 (11), 3212-3216 (2007)

>  <Pubmed ID>
17379515

>  <DOI>
10.1016/j.bmcl.2007.03.016

$$$$
413405
Actelion Java MolfileCreator 1.0

 56 64  0  0  1  0  0  0  0  0999 V2000
    0.0000   -0.0000   -0.0000 S   0  0  0  0  0  0  0  0  0  0  0  0
    1.4845    0.0119   -0.0000 O   0  0  0  0  0  0  0  0  0  0  0  0
   -1.5082    0.0119   -0.0000 O   0  0  0  0  0  0  0  0  0  0  0  0
   -0.0119    1.5082   -0.0000 O   0  0  0  0  0  0  0  0  0  0  0  0
    0.0000   -1.4845   -0.0000 C   0  0  0  0  0  0  0  0  0  0  0  0
   -1.3182    2.2683   -0.0000 C   0  0  0  0  0  0  0  0  0  0  0  0
   -1.3063   -2.2089   -0.0000 C   0  0  0  0  0  0  0  0  0  0  0  0
    1.2707   -2.1970   -0.0000 C   0  0  0  0  0  0  0  0  0  0  0  0
   -1.6507    3.7290   -0.0000 C   0  0  0  0  0  0  0  0  0  0  0  0
   -2.4345    1.2707   -0.0000 C   0  0  0  0  0  0  0  0  0  0  0  0
   -1.3182   -3.6815   -0.0000 C   0  0  0  0  0  0  0  0  0  0  0  0
    1.2588   -3.6696   -0.0000 C   0  0  0  0  0  0  0  0  0  0  0  0
   -3.0639    4.1921   -0.0000 C   0  0  0  0  0  0  0  0  0  0  0  0
   -3.8715    1.7457   -0.0000 C   0  0  0  0  0  0  0  0  0  0  0  0
   -0.0475   -4.4059   -0.0000 C   0  0  0  0  0  0  0  0  0  0  0  0
   -3.6934    5.5697   -0.0000 O   0  0  0  0  0  0  0  0  0  0  0  0
   -4.1921    3.2064   -0.0000 C   0  0  0  0  0  0  0  0  0  0  0  0
   -0.0475   -5.8904   -0.0000 C   0  0  0  0  0  0  0  0  0  0  0  0
   -5.1897    5.4153   -0.0000 C   0  0  0  0  0  0  0  0  0  0  0  0
   -5.4866    3.9427   -0.0000 C   0  0  0  0  0  0  0  0  0  0  0  0
   -6.1991    6.5317   -0.0000 C   0  0  0  0  0  0  0  0  0  0  0  0
   -6.8523    3.3371   -0.0000 C   0  0  0  0  0  0  0  0  0  0  0  0
   -5.7597    7.9686   -0.0000 C   0  0  0  0  0  0  0  0  0  0  0  0
   -7.6599    6.2229   -0.0000 C   0  0  0  0  0  0  0  0  0  0  0  0
   -8.2180    2.7314   -0.0000 C   0  0  0  0  0  0  0  0  0  0  0  0
   -6.7692    9.0849   -0.0000 C   0  0  0  0  0  0  0  0  0  0  0  0
   -8.6812    7.3273   -0.0000 C   0  0  0  0  0  0  0  0  0  0  0  0
   -9.5837    2.1258   -0.0000 C   0  0  0  0  0  0  0  0  0  0  0  0
   -8.2418    8.7762   -0.0000 C   0  0  0  0  0  0  0  0  0  0  0  0
   -9.9400    3.5865   -0.0000 O   0  0  0  0  0  0  0  0  0  0  0  0
  -11.0326    1.6864   -0.0000 C   0  0  0  0  0  0  0  0  0  0  0  0
   -8.7287    0.9144   -0.0000 C   0  0  0  0  0  0  0  0  0  0  0  0
   -9.2631    9.8806   -0.0000 O   0  0  0  0  0  0  0  0  0  0  0  0
  -11.0563    0.1900   -0.0000 C   0  0  0  0  0  0  0  0  0  0  0  0
  -12.3508    2.4583   -0.0000 C   0  0  0  0  0  0  0  0  0  0  0  0
  -11.1394    3.1827   -0.0000 C   0  0  0  0  0  0  0  0  0  0  0  0
   -9.6312   -0.2850   -0.0000 C   0  0  0  0  0  0  0  0  0  0  0  0
   -8.8237   11.3176   -0.0000 C   0  0  0  0  0  0  0  0  0  0  0  0
  -12.3626   -0.5463   -0.0000 C   0  0  0  0  0  0  0  0  0  0  0  0
  -13.6809    1.7101   -0.0000 C   0  0  0  0  0  0  0  0  0  0  0  0
   -9.8806   12.3864   -0.0000 C   0  0  0  0  0  0  0  0  0  0  0  0
  -13.6927    0.2138   -0.0000 C   0  0  0  0  0  0  0  0  0  0  0  0
  -12.3745   -2.0426   -0.0000 C   0  0  0  0  0  0  0  0  0  0  0  0
   -9.5006   13.8352   -0.0000 C   0  0  0  0  0  0  0  0  0  0  0  0
  -11.3295   12.0064   -0.0000 C   0  0  0  0  0  0  0  0  0  0  0  0
  -14.9991   -0.5344   -0.0000 C   0  0  0  0  0  0  0  0  0  0  0  0
  -13.6927   -2.7908   -0.0000 C   0  0  0  0  0  0  0  0  0  0  0  0
  -10.5694   14.9041   -0.0000 C   0  0  0  0  0  0  0  0  0  0  0  0
  -12.3983   13.0752   -0.0000 C   0  0  0  0  0  0  0  0  0  0  0  0
  -15.0109   -2.0308   -0.0000 C   0  0  0  0  0  0  0  0  0  0  0  0
  -16.3054    0.2138   -0.0000 C   0  0  0  0  0  0  0  0  0  0  0  0
  -12.0301   14.5240   -0.0000 C   0  0  0  0  0  0  0  0  0  0  0  0
  -16.3173   -2.7670   -0.0000 C   0  0  0  0  0  0  0  0  0  0  0  0
  -17.6117   -0.5225   -0.0000 C   0  0  0  0  0  0  0  0  0  0  0  0
  -17.6236   -2.0070   -0.0000 C   0  0  0  0  0  0  0  0  0  0  0  0
  -18.9299   -2.7433   -0.0000 O   0  0  0  0  0  0  0  0  0  0  0  0
  1  2  2  0  0  0  0
  1  3  2  0  0  0  0
  1  4  1  0  0  0  0
  1  5  1  0  0  0  0
  4  6  1  0  0  0  0
  5  7  2  0  0  0  0
  5  8  1  0  0  0  0
  6  9  2  0  0  0  0
  6 10  1  0  0  0  0
  7 11  1  0  0  0  0
  8 12  2  0  0  0  0
  9 13  1  0  0  0  0
 10 14  2  0  0  0  0
 11 15  2  0  0  0  0
 13 16  1  0  0  0  0
 13 17  2  0  0  0  0
 15 18  1  0  0  0  0
 16 19  1  0  0  0  0
 17 20  1  0  0  0  0
 19 21  1  0  0  0  0
 20 22  1  0  0  0  0
 21 23  2  0  0  0  0
 21 24  1  0  0  0  0
 22 25  3  0  0  0  0
 23 26  1  0  0  0  0
 24 27  2  0  0  0  0
 25 28  1  0  0  0  0
 26 29  2  0  0  0  0
 28 30  1  1  0  0  0
 28 31  1  0  0  0  0
 28 32  1  0  0  0  0
 29 33  1  0  0  0  0
 31 34  1  0  0  0  0
 31 35  1  0  0  0  0
 31 36  1  1  0  0  0
 32 37  1  0  0  0  0
 33 38  1  0  0  0  0
 34 39  1  0  0  0  0
 35 40  1  0  0  0  0
 38 41  1  0  0  0  0
 39 42  1  0  0  0  0
 39 43  1  6  0  0  0
 41 44  2  0  0  0  0
 41 45  1  0  0  0  0
 42 46  1  0  0  0  0
 43 47  1  0  0  0  0
 44 48  1  0  0  0  0
 45 49  2  0  0  0  0
 46 50  2  0  0  0  0
 46 51  1  0  0  0  0
 48 52  2  0  0  0  0
 50 53  1  0  0  0  0
 51 54  2  0  0  0  0
 53 55  2  0  0  0  0
 55 56  1  0  0  0  0
 12 15  1  0  0  0  0
 14 17  1  0  0  0  0
 19 20  2  0  0  0  0
 27 29  1  0  0  0  0
 34 37  1  1  0  0  0
 42 40  1  1  0  0  0
 47 50  1  0  0  0  0
 49 52  1  0  0  0  0
 54 55  1  0  0  0  0
M  END
>  <MolRegNo>
413405

>  <m>
=

>  <Value>
332

>  <Unit>
nM

>  <Type>
Ki

>  <pValue>
6.48

>  <Ligand Efficiency>
0.16

>  <Binding Efficiency>
8.47

>  <Surface Efficiency>
6.1

>  <Assay Index>
304003

>  <Assay Category>


>  <Assay Organism>


>  <Target ID>
19

>  <Target Name>
Estrogen receptor alpha

>  <Target Organism>
Homo sapiens

>  <Target Description>
Target is a single protein chain

>  <Sequence Accession>
P03372

>  <Reference>
Bioorg Med Chem Lett 17 (11), 3212-3216 (2007)

>  <Pubmed ID>
17379515

>  <DOI>
10.1016/j.bmcl.2007.03.016

$$$$
413404
Actelion Java MolfileCreator 1.0

 38 44  0  0  1  0  0  0  0  0999 V2000
    0.0000   -0.0000   -0.0000 O   0  0  0  0  0  0  0  0  0  0  0  0
   -1.4274   -0.4639   -0.0000 C   0  0  0  0  0  0  0  0  0  0  0  0
   -1.7367   -1.9151   -0.0000 C   0  0  0  0  0  0  0  0  0  0  0  0
   -2.5575    0.5353   -0.0000 C   0  0  0  0  0  0  0  0  0  0  0  0
   -0.6304   -2.8905   -0.0000 C   0  0  0  0  0  0  0  0  0  0  0  0
   -3.1641   -2.3790   -0.0000 C   0  0  0  0  0  0  0  0  0  0  0  0
   -3.9849    0.0714   -0.0000 C   0  0  0  0  0  0  0  0  0  0  0  0
    0.8208   -2.5575   -0.0000 N   0  0  0  0  0  0  0  0  0  0  0  0
   -0.7851   -4.3655   -0.0000 C   0  0  0  0  0  0  0  0  0  0  0  0
   -4.2942   -1.3798   -0.0000 C   0  0  0  0  0  0  0  0  0  0  0  0
    1.5702   -3.8422   -0.0000 C   0  0  0  0  0  0  0  0  0  0  0  0
   -2.0936   -5.1149   -0.0000 C   0  0  0  0  0  0  0  0  0  0  0  0
    0.5591   -4.9484   -0.0000 C   0  0  0  0  0  0  0  0  0  0  0  0
    3.0095   -4.1276   -0.0000 C   0  0  0  0  0  0  0  0  0  0  0  0
   -3.4020   -5.8643   -0.0000 C   0  0  0  0  0  0  0  0  0  0  0  0
    1.0111   -6.3521   -0.0000 C   0  0  0  0  0  0  0  0  0  0  0  0
    3.4615   -5.5313   -0.0000 C   0  0  0  0  0  0  0  0  0  0  0  0
   -4.7105   -6.6137   -0.0000 C   0  0  0  0  0  0  0  0  0  0  0  0
    2.4623   -6.6494   -0.0000 C   0  0  0  0  0  0  0  0  0  0  0  0
   -5.1149   -5.1506   -0.0000 O   0  0  0  0  0  0  0  0  0  0  0  0
   -6.1617   -7.0539   -0.0000 C   0  0  0  0  0  0  0  0  0  0  0  0
   -3.8422   -7.8271   -0.0000 C   0  0  0  0  0  0  0  0  0  0  0  0
   -6.1855   -8.5527   -0.0000 C   0  0  0  0  0  0  0  0  0  0  0  0
   -7.4821   -6.2807   -0.0000 C   0  0  0  0  0  0  0  0  0  0  0  0
   -6.1855   -5.5432   -0.0000 C   0  0  0  0  0  0  0  0  0  0  0  0
   -4.7581   -9.0285   -0.0000 C   0  0  0  0  0  0  0  0  0  0  0  0
   -7.4940   -9.3021   -0.0000 C   0  0  0  0  0  0  0  0  0  0  0  0
   -8.8144   -7.0182   -0.0000 C   0  0  0  0  0  0  0  0  0  0  0  0
   -8.8144   -8.5289   -0.0000 C   0  0  0  0  0  0  0  0  0  0  0  0
   -7.4940  -10.7890   -0.0000 C   0  0  0  0  0  0  0  0  0  0  0  0
  -10.1228   -9.2783   -0.0000 C   0  0  0  0  0  0  0  0  0  0  0  0
   -8.8144  -11.5384   -0.0000 C   0  0  0  0  0  0  0  0  0  0  0  0
  -10.1228  -10.7771   -0.0000 C   0  0  0  0  0  0  0  0  0  0  0  0
  -11.4313   -8.5289   -0.0000 C   0  0  0  0  0  0  0  0  0  0  0  0
  -11.4313  -11.5146   -0.0000 C   0  0  0  0  0  0  0  0  0  0  0  0
  -12.7398   -9.2664   -0.0000 C   0  0  0  0  0  0  0  0  0  0  0  0
  -12.7398  -10.7533   -0.0000 C   0  0  0  0  0  0  0  0  0  0  0  0
  -14.0483  -11.4908   -0.0000 O   0  0  0  0  0  0  0  0  0  0  0  0
  1  2  1  0  0  0  0
  2  3  2  0  0  0  0
  2  4  1  0  0  0  0
  3  5  1  0  0  0  0
  3  6  1  0  0  0  0
  4  7  2  0  0  0  0
  5  8  1  0  0  0  0
  5  9  2  0  0  0  0
  6 10  2  0  0  0  0
  8 11  1  0  0  0  0
  9 12  1  0  0  0  0
  9 13  1  0  0  0  0
 11 14  1  0  0  0  0
 12 15  3  0  0  0  0
 13 16  1  0  0  0  0
 14 17  2  0  0  0  0
 15 18  1  0  0  0  0
 16 19  2  0  0  0  0
 18 20  1  1  0  0  0
 18 21  1  0  0  0  0
 18 22  1  0  0  0  0
 21 23  1  0  0  0  0
 21 24  1  0  0  0  0
 21 25  1  1  0  0  0
 22 26  1  0  0  0  0
 23 27  1  0  0  0  0
 24 28  1  0  0  0  0
 27 29  1  0  0  0  0
 27 30  1  6  0  0  0
 29 31  1  0  0  0  0
 30 32  1  0  0  0  0
 31 33  2  0  0  0  0
 31 34  1  0  0  0  0
 33 35  1  0  0  0  0
 34 36  2  0  0  0  0
 35 37  2  0  0  0  0
 37 38  1  0  0  0  0
  7 10  1  0  0  0  0
 11 13  2  0  0  0  0
 17 19  1  0  0  0  0
 23 26  1  1  0  0  0
 29 28  1  1  0  0  0
 32 33  1  0  0  0  0
 36 37  1  0  0  0  0
M  END
>  <MolRegNo>
413404

>  <m>
=

>  <Value>
75

>  <Unit>
nM

>  <Type>
Ki

>  <pValue>
7.12

>  <Ligand Efficiency>
0.26

>  <Binding Efficiency>
14.15

>  <Surface Efficiency>
9.32

>  <Assay Index>
304003

>  <Assay Category>


>  <Assay Organism>


>  <Target ID>
19

>  <Target Name>
Estrogen receptor alpha

>  <Target Organism>
Homo sapiens

>  <Target Description>
Target is a single protein chain

>  <Sequence Accession>
P03372

>  <Reference>
Bioorg Med Chem Lett 17 (11), 3212-3216 (2007)

>  <Pubmed ID>
17379515

>  <DOI>
10.1016/j.bmcl.2007.03.016

$$$$
413403
Actelion Java MolfileCreator 1.0

 39 45  0  0  1  0  0  0  0  0999 V2000
    0.0000   -0.0000   -0.0000 O   0  0  0  0  0  0  0  0  0  0  0  0
   -1.4282   -0.4642   -0.0000 C   0  0  0  0  0  0  0  0  0  0  0  0
    0.2856    1.4758   -0.0000 C   0  0  0  0  0  0  0  0  0  0  0  0
   -1.7376   -1.9161   -0.0000 C   0  0  0  0  0  0  0  0  0  0  0  0
   -2.5588    0.5356   -0.0000 C   0  0  0  0  0  0  0  0  0  0  0  0
   -0.6308   -2.8921   -0.0000 C   0  0  0  0  0  0  0  0  0  0  0  0
   -3.1658   -2.3803   -0.0000 C   0  0  0  0  0  0  0  0  0  0  0  0
   -3.9870    0.0714   -0.0000 C   0  0  0  0  0  0  0  0  0  0  0  0
    0.8212   -2.5588   -0.0000 N   0  0  0  0  0  0  0  0  0  0  0  0
   -0.7855   -4.3679   -0.0000 C   0  0  0  0  0  0  0  0  0  0  0  0
   -4.2964   -1.3806   -0.0000 C   0  0  0  0  0  0  0  0  0  0  0  0
    1.5591   -3.8442   -0.0000 C   0  0  0  0  0  0  0  0  0  0  0  0
   -2.0947   -5.1058   -0.0000 C   0  0  0  0  0  0  0  0  0  0  0  0
    0.5594   -4.9510   -0.0000 C   0  0  0  0  0  0  0  0  0  0  0  0
    2.9992   -4.1298   -0.0000 C   0  0  0  0  0  0  0  0  0  0  0  0
   -3.4038   -5.8555   -0.0000 C   0  0  0  0  0  0  0  0  0  0  0  0
    1.0116   -6.3554   -0.0000 C   0  0  0  0  0  0  0  0  0  0  0  0
    3.4514   -5.5342   -0.0000 C   0  0  0  0  0  0  0  0  0  0  0  0
   -4.7011   -6.6053   -0.0000 C   0  0  0  0  0  0  0  0  0  0  0  0
    2.4636   -6.6529   -0.0000 C   0  0  0  0  0  0  0  0  0  0  0  0
   -5.1058   -5.1415   -0.0000 O   0  0  0  0  0  0  0  0  0  0  0  0
   -6.1531   -7.0457   -0.0000 C   0  0  0  0  0  0  0  0  0  0  0  0
   -3.8323   -7.8193   -0.0000 C   0  0  0  0  0  0  0  0  0  0  0  0
   -6.1769   -8.5453   -0.0000 C   0  0  0  0  0  0  0  0  0  0  0  0
   -7.4742   -6.2721   -0.0000 C   0  0  0  0  0  0  0  0  0  0  0  0
   -6.1769   -5.5342   -0.0000 C   0  0  0  0  0  0  0  0  0  0  0  0
   -4.7487   -9.0213   -0.0000 C   0  0  0  0  0  0  0  0  0  0  0  0
   -7.4861   -9.2951   -0.0000 C   0  0  0  0  0  0  0  0  0  0  0  0
   -8.8071   -7.0100   -0.0000 C   0  0  0  0  0  0  0  0  0  0  0  0
   -8.8071   -8.5215   -0.0000 C   0  0  0  0  0  0  0  0  0  0  0  0
   -7.4861  -10.7828   -0.0000 C   0  0  0  0  0  0  0  0  0  0  0  0
  -10.1163   -9.2713   -0.0000 C   0  0  0  0  0  0  0  0  0  0  0  0
   -8.8071  -11.5326   -0.0000 C   0  0  0  0  0  0  0  0  0  0  0  0
  -10.1163  -10.7709   -0.0000 C   0  0  0  0  0  0  0  0  0  0  0  0
  -11.4255   -8.5215   -0.0000 C   0  0  0  0  0  0  0  0  0  0  0  0
  -11.4255  -11.5088   -0.0000 C   0  0  0  0  0  0  0  0  0  0  0  0
  -12.7346   -9.2594   -0.0000 C   0  0  0  0  0  0  0  0  0  0  0  0
  -12.7346  -10.7471   -0.0000 C   0  0  0  0  0  0  0  0  0  0  0  0
  -14.0438  -11.4850   -0.0000 O   0  0  0  0  0  0  0  0  0  0  0  0
  1  2  1  0  0  0  0
  1  3  1  0  0  0  0
  2  4  2  0  0  0  0
  2  5  1  0  0  0  0
  4  6  1  0  0  0  0
  4  7  1  0  0  0  0
  5  8  2  0  0  0  0
  6  9  1  0  0  0  0
  6 10  2  0  0  0  0
  7 11  2  0  0  0  0
  9 12  1  0  0  0  0
 10 13  1  0  0  0  0
 10 14  1  0  0  0  0
 12 15  1  0  0  0  0
 13 16  3  0  0  0  0
 14 17  1  0  0  0  0
 15 18  2  0  0  0  0
 16 19  1  0  0  0  0
 17 20  2  0  0  0  0
 19 21  1  1  0  0  0
 19 22  1  0  0  0  0
 19 23  1  0  0  0  0
 22 24  1  0  0  0  0
 22 25  1  0  0  0  0
 22 26  1  1  0  0  0
 23 27  1  0  0  0  0
 24 28  1  0  0  0  0
 25 29  1  0  0  0  0
 28 30  1  0  0  0  0
 28 31  1  6  0  0  0
 30 32  1  0  0  0  0
 31 33  1  0  0  0  0
 32 34  2  0  0  0  0
 32 35  1  0  0  0  0
 34 36  1  0  0  0  0
 35 37  2  0  0  0  0
 36 38  2  0  0  0  0
 38 39  1  0  0  0  0
  8 11  1  0  0  0  0
 12 14  2  0  0  0  0
 18 20  1  0  0  0  0
 24 27  1  1  0  0  0
 30 29  1  1  0  0  0
 33 34  1  0  0  0  0
 37 38  1  0  0  0  0
M  END
>  <MolRegNo>
413403

>  <m>
=

>  <Value>
35

>  <Unit>
nM

>  <Type>
Ki

>  <pValue>
7.46

>  <Ligand Efficiency>
0.26

>  <Binding Efficiency>
14.4

>  <Surface Efficiency>
11.39

>  <Assay Index>
304003

>  <Assay Category>


>  <Assay Organism>


>  <Target ID>
19

>  <Target Name>
Estrogen receptor alpha

>  <Target Organism>
Homo sapiens

>  <Target Description>
Target is a single protein chain

>  <Sequence Accession>
P03372

>  <Reference>
Bioorg Med Chem Lett 17 (11), 3212-3216 (2007)

>  <Pubmed ID>
17379515

>  <DOI>
10.1016/j.bmcl.2007.03.016

$$$$
413402
Actelion Java MolfileCreator 1.0

 39 45  0  0  1  0  0  0  0  0999 V2000
    0.0000   -0.0000   -0.0000 O   0  0  0  0  0  0  0  0  0  0  0  0
   -1.3066   -0.7483   -0.0000 C   0  0  0  0  0  0  0  0  0  0  0  0
   -1.3066   -2.2094   -0.0000 C   0  0  0  0  0  0  0  0  0  0  0  0
   -2.6014   -0.0000   -0.0000 C   0  0  0  0  0  0  0  0  0  0  0  0
   -2.6014   -2.9458   -0.0000 C   0  0  0  0  0  0  0  0  0  0  0  0
   -0.0119   -2.9340   -0.0000 C   0  0  0  0  0  0  0  0  0  0  0  0
   -3.8961   -0.7365   -0.0000 C   0  0  0  0  0  0  0  0  0  0  0  0
   -3.9080   -2.2094   -0.0000 O   0  0  0  0  0  0  0  0  0  0  0  0
   -2.6014   -4.4188   -0.0000 C   0  0  0  0  0  0  0  0  0  0  0  0
   -0.0119   -4.4188   -0.0000 C   0  0  0  0  0  0  0  0  0  0  0  0
   -5.2027    0.0119   -0.0000 C   0  0  0  0  0  0  0  0  0  0  0  0
   -3.9080   -5.1671   -0.0000 C   0  0  0  0  0  0  0  0  0  0  0  0
   -1.3185   -5.1552   -0.0000 C   0  0  0  0  0  0  0  0  0  0  0  0
   -6.4975   -0.7246   -0.0000 C   0  0  0  0  0  0  0  0  0  0  0  0
   -5.2265    1.5204   -0.0000 C   0  0  0  0  0  0  0  0  0  0  0  0
   -5.2146   -5.9154   -0.0000 C   0  0  0  0  0  0  0  0  0  0  0  0
   -7.8041    0.0238   -0.0000 C   0  0  0  0  0  0  0  0  0  0  0  0
   -6.5331    2.2688   -0.0000 C   0  0  0  0  0  0  0  0  0  0  0  0
   -6.5094   -6.6638   -0.0000 C   0  0  0  0  0  0  0  0  0  0  0  0
   -7.8279    1.5323   -0.0000 C   0  0  0  0  0  0  0  0  0  0  0  0
   -6.9132   -5.2027   -0.0000 O   0  0  0  0  0  0  0  0  0  0  0  0
   -7.9585   -7.1033   -0.0000 C   0  0  0  0  0  0  0  0  0  0  0  0
   -5.6422   -7.8754   -0.0000 C   0  0  0  0  0  0  0  0  0  0  0  0
   -7.9823   -8.6000   -0.0000 C   0  0  0  0  0  0  0  0  0  0  0  0
   -9.2770   -6.3312   -0.0000 C   0  0  0  0  0  0  0  0  0  0  0  0
   -7.9823   -5.5947   -0.0000 C   0  0  0  0  0  0  0  0  0  0  0  0
   -6.5569   -9.0751   -0.0000 C   0  0  0  0  0  0  0  0  0  0  0  0
   -9.2889   -9.3483   -0.0000 C   0  0  0  0  0  0  0  0  0  0  0  0
  -10.6074   -7.0677   -0.0000 C   0  0  0  0  0  0  0  0  0  0  0  0
  -10.6074   -8.5762   -0.0000 C   0  0  0  0  0  0  0  0  0  0  0  0
   -9.2889  -10.8331   -0.0000 C   0  0  0  0  0  0  0  0  0  0  0  0
  -11.9140   -9.3245   -0.0000 C   0  0  0  0  0  0  0  0  0  0  0  0
  -10.6074  -11.5814   -0.0000 C   0  0  0  0  0  0  0  0  0  0  0  0
  -11.9140  -10.8212   -0.0000 C   0  0  0  0  0  0  0  0  0  0  0  0
  -13.2207   -8.5762   -0.0000 C   0  0  0  0  0  0  0  0  0  0  0  0
  -13.2207  -11.5577   -0.0000 C   0  0  0  0  0  0  0  0  0  0  0  0
  -14.5273   -9.3127   -0.0000 C   0  0  0  0  0  0  0  0  0  0  0  0
  -14.5273  -10.7975   -0.0000 C   0  0  0  0  0  0  0  0  0  0  0  0
  -15.8339  -11.5339   -0.0000 O   0  0  0  0  0  0  0  0  0  0  0  0
  1  2  2  0  0  0  0
  2  3  1  0  0  0  0
  2  4  1  0  0  0  0
  3  5  2  0  0  0  0
  3  6  1  0  0  0  0
  4  7  2  0  0  0  0
  5  8  1  0  0  0  0
  5  9  1  0  0  0  0
  6 10  2  0  0  0  0
  7 11  1  0  0  0  0
  9 12  1  0  0  0  0
  9 13  2  0  0  0  0
 11 14  2  0  0  0  0
 11 15  1  0  0  0  0
 12 16  3  0  0  0  0
 14 17  1  0  0  0  0
 15 18  2  0  0  0  0
 16 19  1  0  0  0  0
 17 20  2  0  0  0  0
 19 21  1  1  0  0  0
 19 22  1  0  0  0  0
 19 23  1  0  0  0  0
 22 24  1  0  0  0  0
 22 25  1  0  0  0  0
 22 26  1  1  0  0  0
 23 27  1  0  0  0  0
 24 28  1  0  0  0  0
 25 29  1  0  0  0  0
 28 30  1  0  0  0  0
 28 31  1  6  0  0  0
 30 32  1  0  0  0  0
 31 33  1  0  0  0  0
 32 34  2  0  0  0  0
 32 35  1  0  0  0  0
 34 36  1  0  0  0  0
 35 37  2  0  0  0  0
 36 38  2  0  0  0  0
 38 39  1  0  0  0  0
  7  8  1  0  0  0  0
 10 13  1  0  0  0  0
 18 20  1  0  0  0  0
 24 27  1  1  0  0  0
 30 29  1  1  0  0  0
 33 34  1  0  0  0  0
 37 38  1  0  0  0  0
M  END
>  <MolRegNo>
413402

>  <m>
=

>  <Value>
100

>  <Unit>
nM

>  <Type>
Ki

>  <pValue>
7

>  <Ligand Efficiency>
0.25

>  <Binding Efficiency>
13.55

>  <Surface Efficiency>
9.91

>  <Assay Index>
304003

>  <Assay Category>


>  <Assay Organism>


>  <Target ID>
19

>  <Target Name>
Estrogen receptor alpha

>  <Target Organism>
Homo sapiens

>  <Target Description>
Target is a single protein chain

>  <Sequence Accession>
P03372

>  <Reference>
Bioorg Med Chem Lett 17 (11), 3212-3216 (2007)

>  <Pubmed ID>
17379515

>  <DOI>
10.1016/j.bmcl.2007.03.016

$$$$
413401
Actelion Java MolfileCreator 1.0

 39 45  0  0  1  0  0  0  0  0999 V2000
    0.0000   -0.0000   -0.0000 O   0  0  0  0  0  0  0  0  0  0  0  0
    1.2846   -0.7255   -0.0000 C   0  0  0  0  0  0  0  0  0  0  0  0
    1.2846   -2.2004   -0.0000 C   0  0  0  0  0  0  0  0  0  0  0  0
    2.5691    0.0357   -0.0000 C   0  0  0  0  0  0  0  0  0  0  0  0
   -0.0238   -2.9378   -0.0000 C   0  0  0  0  0  0  0  0  0  0  0  0
    2.5691   -2.9378   -0.0000 C   0  0  0  0  0  0  0  0  0  0  0  0
    3.8656   -0.7018   -0.0000 C   0  0  0  0  0  0  0  0  0  0  0  0
    2.5453    1.5462   -0.0000 C   0  0  0  0  0  0  0  0  0  0  0  0
   -1.3321   -3.6872   -0.0000 C   0  0  0  0  0  0  0  0  0  0  0  0
    3.8418   -2.1766   -0.0000 O   0  0  0  0  0  0  0  0  0  0  0  0
    2.5572   -4.4127   -0.0000 C   0  0  0  0  0  0  0  0  0  0  0  0
    5.1501    0.0595   -0.0000 C   0  0  0  0  0  0  0  0  0  0  0  0
    3.8299    2.3193   -0.0000 C   0  0  0  0  0  0  0  0  0  0  0  0
   -2.6286   -4.4365   -0.0000 C   0  0  0  0  0  0  0  0  0  0  0  0
    3.8418   -5.1382   -0.0000 C   0  0  0  0  0  0  0  0  0  0  0  0
    1.2489   -5.1501   -0.0000 C   0  0  0  0  0  0  0  0  0  0  0  0
    5.1382    1.5700   -0.0000 C   0  0  0  0  0  0  0  0  0  0  0  0
   -3.0330   -2.9735   -0.0000 O   0  0  0  0  0  0  0  0  0  0  0  0
   -4.0797   -4.8766   -0.0000 C   0  0  0  0  0  0  0  0  0  0  0  0
   -1.7603   -5.6497   -0.0000 C   0  0  0  0  0  0  0  0  0  0  0  0
    3.8418   -6.6131   -0.0000 C   0  0  0  0  0  0  0  0  0  0  0  0
    1.2370   -6.6369   -0.0000 C   0  0  0  0  0  0  0  0  0  0  0  0
   -4.1035   -6.3752   -0.0000 C   0  0  0  0  0  0  0  0  0  0  0  0
   -5.3999   -4.1035   -0.0000 C   0  0  0  0  0  0  0  0  0  0  0  0
   -4.1035   -3.3660   -0.0000 C   0  0  0  0  0  0  0  0  0  0  0  0
   -2.6762   -6.8510   -0.0000 C   0  0  0  0  0  0  0  0  0  0  0  0
    2.5334   -7.3624   -0.0000 C   0  0  0  0  0  0  0  0  0  0  0  0
   -5.4118   -7.1246   -0.0000 C   0  0  0  0  0  0  0  0  0  0  0  0
   -6.7321   -4.8409   -0.0000 C   0  0  0  0  0  0  0  0  0  0  0  0
   -6.7321   -6.3514   -0.0000 C   0  0  0  0  0  0  0  0  0  0  0  0
   -5.4118   -8.6113   -0.0000 C   0  0  0  0  0  0  0  0  0  0  0  0
   -8.0404   -7.1008   -0.0000 C   0  0  0  0  0  0  0  0  0  0  0  0
   -6.7321   -9.3607   -0.0000 C   0  0  0  0  0  0  0  0  0  0  0  0
   -8.0404   -8.5994   -0.0000 C   0  0  0  0  0  0  0  0  0  0  0  0
   -9.3488   -6.3514   -0.0000 C   0  0  0  0  0  0  0  0  0  0  0  0
   -9.3488   -9.3369   -0.0000 C   0  0  0  0  0  0  0  0  0  0  0  0
  -10.6571   -7.0889   -0.0000 C   0  0  0  0  0  0  0  0  0  0  0  0
  -10.6571   -8.5756   -0.0000 C   0  0  0  0  0  0  0  0  0  0  0  0
  -11.9655   -9.3131   -0.0000 O   0  0  0  0  0  0  0  0  0  0  0  0
  1  2  2  0  0  0  0
  2  3  1  0  0  0  0
  2  4  1  0  0  0  0
  3  5  1  0  0  0  0
  3  6  2  0  0  0  0
  4  7  2  0  0  0  0
  4  8  1  0  0  0  0
  5  9  3  0  0  0  0
  6 10  1  0  0  0  0
  6 11  1  0  0  0  0
  7 12  1  0  0  0  0
  8 13  2  0  0  0  0
  9 14  1  0  0  0  0
 11 15  2  0  0  0  0
 11 16  1  0  0  0  0
 12 17  2  0  0  0  0
 14 18  1  1  0  0  0
 14 19  1  0  0  0  0
 14 20  1  0  0  0  0
 15 21  1  0  0  0  0
 16 22  2  0  0  0  0
 19 23  1  0  0  0  0
 19 24  1  0  0  0  0
 19 25  1  1  0  0  0
 20 26  1  0  0  0  0
 21 27  2  0  0  0  0
 23 28  1  0  0  0  0
 24 29  1  0  0  0  0
 28 30  1  0  0  0  0
 28 31  1  6  0  0  0
 30 32  1  0  0  0  0
 31 33  1  0  0  0  0
 32 34  2  0  0  0  0
 32 35  1  0  0  0  0
 34 36  1  0  0  0  0
 35 37  2  0  0  0  0
 36 38  2  0  0  0  0
 38 39  1  0  0  0  0
  7 10  1  0  0  0  0
 13 17  1  0  0  0  0
 22 27  1  0  0  0  0
 23 26  1  1  0  0  0
 30 29  1  1  0  0  0
 33 34  1  0  0  0  0
 37 38  1  0  0  0  0
M  END
>  <MolRegNo>
413401

>  <m>
=

>  <Value>
37

>  <Unit>
nM

>  <Type>
Ki

>  <pValue>
7.43

>  <Ligand Efficiency>
0.26

>  <Binding Efficiency>
14.38

>  <Surface Efficiency>
10.52

>  <Assay Index>
304003

>  <Assay Category>


>  <Assay Organism>


>  <Target ID>
19

>  <Target Name>
Estrogen receptor alpha

>  <Target Organism>
Homo sapiens

>  <Target Description>
Target is a single protein chain

>  <Sequence Accession>
P03372

>  <Reference>
Bioorg Med Chem Lett 17 (11), 3212-3216 (2007)

>  <Pubmed ID>
17379515

>  <DOI>
10.1016/j.bmcl.2007.03.016

$$$$
442270
Actelion Java MolfileCreator 1.0

 18 19  0  0  0  0  0  0  0  0999 V2000
    0.0000   -0.0000   -0.0000 Cl  0  0  0  0  0  0  0  0  0  0  0  0
   -0.0119   -1.4874   -0.0000 C   0  0  0  0  0  0  0  0  0  0  0  0
   -1.3208   -2.2252   -0.0000 C   0  0  0  0  0  0  0  0  0  0  0  0
    1.2732   -2.2252   -0.0000 C   0  0  0  0  0  0  0  0  0  0  0  0
   -2.6298   -1.4636   -0.0000 O   0  0  0  0  0  0  0  0  0  0  0  0
   -1.3327   -3.7245   -0.0000 C   0  0  0  0  0  0  0  0  0  0  0  0
    2.5584   -1.4636   -0.0000 C   0  0  0  0  0  0  0  0  0  0  0  0
    1.2613   -3.7245   -0.0000 C   0  0  0  0  0  0  0  0  0  0  0  0
   -0.0476   -4.4623   -0.0000 C   0  0  0  0  0  0  0  0  0  0  0  0
   -2.6417   -4.4623   -0.0000 C   0  0  0  0  0  0  0  0  0  0  0  0
    3.8554   -2.2014   -0.0000 C   0  0  0  0  0  0  0  0  0  0  0  0
    2.5346    0.0476   -0.0000 C   0  0  0  0  0  0  0  0  0  0  0  0
   -3.9506   -3.7007   -0.0000 N   0  0  0  0  0  0  0  0  0  0  0  0
    5.1406   -1.4398   -0.0000 C   0  0  0  0  0  0  0  0  0  0  0  0
    3.8078    0.8211   -0.0000 C   0  0  0  0  0  0  0  0  0  0  0  0
   -5.2596   -4.4385   -0.0000 O   0  0  0  0  0  0  0  0  0  0  0  0
    5.1287    0.0714   -0.0000 C   0  0  0  0  0  0  0  0  0  0  0  0
    6.4138    0.8449   -0.0000 O   0  0  0  0  0  0  0  0  0  0  0  0
  1  2  1  0  0  0  0
  2  3  2  0  0  0  0
  2  4  1  0  0  0  0
  3  5  1  0  0  0  0
  3  6  1  0  0  0  0
  4  7  1  0  0  0  0
  4  8  2  0  0  0  0
  6  9  2  0  0  0  0
  6 10  1  0  0  0  0
  7 11  2  0  0  0  0
  7 12  1  0  0  0  0
 10 13  2  0  0  0  0
 11 14  1  0  0  0  0
 12 15  2  0  0  0  0
 13 16  1  0  0  0  0
 14 17  2  0  0  0  0
 17 18  1  0  0  0  0
  8  9  1  0  0  0  0
 15 17  1  0  0  0  0
M  END
>  <MolRegNo>
442270

>  <m>
=

>  <Value>
310

>  <Unit>
nM

>  <Type>
Ki

>  <pValue>
6.51

>  <Ligand Efficiency>
0.49

>  <Binding Efficiency>
24.68

>  <Surface Efficiency>
8.91

>  <Assay Index>
317526

>  <Assay Category>


>  <Assay Organism>
Homo sapiens

>  <Target ID>
19

>  <Target Name>
Estrogen receptor alpha

>  <Target Organism>
Homo sapiens

>  <Target Description>
Target is a single protein chain

>  <Sequence Accession>
P03372

>  <Reference>
J Med Chem 51 (5), 1344-1351 (2008)

>  <Pubmed ID>
18269232

>  <DOI>
10.1021/jm701396g

$$$$
470089
Actelion Java MolfileCreator 1.0

 24 25  0  0  0  0  0  0  0  0999 V2000
    0.0000   -0.0000   -0.0000 N   0  0  0  0  0  0  0  0  0  0  0  0
   -0.0118   -1.4861   -0.0000 C   0  0  0  0  0  0  0  0  0  0  0  0
   -1.3092    0.7548   -0.0000 C   0  0  0  0  0  0  0  0  0  0  0  0
   -1.3210   -2.2291   -0.0000 N   0  0  0  0  0  0  0  0  0  0  0  0
    1.2738   -2.2291   -0.0000 N   0  0  0  0  0  0  0  0  0  0  0  0
   -1.3210    2.2527   -0.0000 N   0  0  0  0  0  0  0  0  0  0  0  0
   -2.6183    0.0236   -0.0000 C   0  0  0  0  0  0  0  0  0  0  0  0
   -2.6301   -1.4743   -0.0000 C   0  0  0  0  0  0  0  0  0  0  0  0
    2.5594   -1.4625   -0.0000 C   0  0  0  0  0  0  0  0  0  0  0  0
   -2.6301    3.0193   -0.0000 C   0  0  0  0  0  0  0  0  0  0  0  0
   -3.9393   -2.2055   -0.0000 C   0  0  0  0  0  0  0  0  0  0  0  0
    3.8449   -2.2055   -0.0000 C   0  0  0  0  0  0  0  0  0  0  0  0
   -3.9393    2.2763   -0.0000 C   0  0  0  0  0  0  0  0  0  0  0  0
   -5.2484   -1.4507   -0.0000 C   0  0  0  0  0  0  0  0  0  0  0  0
    5.1305   -1.4389   -0.0000 C   0  0  0  0  0  0  0  0  0  0  0  0
    3.8331   -3.6916   -0.0000 C   0  0  0  0  0  0  0  0  0  0  0  0
   -5.2484    3.0429   -0.0000 C   0  0  0  0  0  0  0  0  0  0  0  0
   -3.9511    0.7902   -0.0000 C   0  0  0  0  0  0  0  0  0  0  0  0
   -6.5576   -2.1819   -0.0000 C   0  0  0  0  0  0  0  0  0  0  0  0
   -7.8668   -1.4271   -0.0000 C   0  0  0  0  0  0  0  0  0  0  0  0
   -6.5694   -3.6680   -0.0000 C   0  0  0  0  0  0  0  0  0  0  0  0
   -9.1759   -2.1583   -0.0000 C   0  0  0  0  0  0  0  0  0  0  0  0
   -7.8786   -4.4111   -0.0000 C   0  0  0  0  0  0  0  0  0  0  0  0
   -9.1877   -3.6444   -0.0000 C   0  0  0  0  0  0  0  0  0  0  0  0
  1  2  2  0  0  0  0
  1  3  1  0  0  0  0
  2  4  1  0  0  0  0
  2  5  1  0  0  0  0
  3  6  1  0  0  0  0
  3  7  2  0  0  0  0
  4  8  2  0  0  0  0
  5  9  1  0  0  0  0
  6 10  1  0  0  0  0
  8 11  1  0  0  0  0
  9 12  1  0  0  0  0
 10 13  1  0  0  0  0
 11 14  2  0  0  0  0
 12 15  1  0  0  0  0
 12 16  1  0  0  0  0
 13 17  1  0  0  0  0
 13 18  1  0  0  0  0
 14 19  1  0  0  0  0
 19 20  2  0  0  0  0
 19 21  1  0  0  0  0
 20 22  1  0  0  0  0
 21 23  2  0  0  0  0
 22 24  2  0  0  0  0
  7  8  1  0  0  0  0
 23 24  1  0  0  0  0
M  END
>  <MolRegNo>
470089

>  <m>
=

>  <Value>
7500

>  <Unit>
nM

>  <Type>
Ki

>  <pValue>
5.12

>  <Ligand Efficiency>
0.29

>  <Binding Efficiency>
15.79

>  <Surface Efficiency>
10.28

>  <Assay Index>
388502

>  <Assay Category>


>  <Assay Organism>


>  <Target ID>
19

>  <Target Name>
Estrogen receptor alpha

>  <Target Organism>
Homo sapiens

>  <Target Description>
Target is a single protein chain

>  <Sequence Accession>
P03372

>  <Reference>
J Med Chem 51 (20), 6512-6530 (2008)

>  <Pubmed ID>
18785725

>  <DOI>
10.1021/jm800698b

$$$$
470230
Actelion Java MolfileCreator 1.0

 17 17  0  0  0  0  0  0  0  0999 V2000
    0.0000   -0.0000   -0.0000 Cl  0  0  0  0  0  0  0  0  0  0  0  0
   -1.3097    0.7551   -0.0000 C   0  0  0  0  0  0  0  0  0  0  0  0
   -1.3215    2.2654   -0.0000 N   0  0  0  0  0  0  0  0  0  0  0  0
   -2.6194    0.0118   -0.0000 N   0  0  0  0  0  0  0  0  0  0  0  0
   -2.6312    3.0205   -0.0000 C   0  0  0  0  0  0  0  0  0  0  0  0
   -3.9291    0.7669   -0.0000 C   0  0  0  0  0  0  0  0  0  0  0  0
   -2.6430    4.5190   -0.0000 N   0  0  0  0  0  0  0  0  0  0  0  0
   -3.9408    2.2890   -0.0000 C   0  0  0  0  0  0  0  0  0  0  0  0
   -5.2387    0.0354   -0.0000 N   0  0  0  0  0  0  0  0  0  0  0  0
   -1.3569    5.2859   -0.0000 C   0  0  0  0  0  0  0  0  0  0  0  0
   -6.5484    0.7905   -0.0000 C   0  0  0  0  0  0  0  0  0  0  0  0
   -0.0708    4.5544   -0.0000 C   0  0  0  0  0  0  0  0  0  0  0  0
   -7.8581    0.0590   -0.0000 C   0  0  0  0  0  0  0  0  0  0  0  0
   -0.0826    3.0795   -0.0000 C   0  0  0  0  0  0  0  0  0  0  0  0
    1.2035    5.3095   -0.0000 C   0  0  0  0  0  0  0  0  0  0  0  0
   -7.8699   -1.4159   -0.0000 C   0  0  0  0  0  0  0  0  0  0  0  0
   -9.1560    0.8259   -0.0000 C   0  0  0  0  0  0  0  0  0  0  0  0
  1  2  1  0  0  0  0
  2  3  2  0  0  0  0
  2  4  1  0  0  0  0
  3  5  1  0  0  0  0
  4  6  2  0  0  0  0
  5  7  1  0  0  0  0
  5  8  2  0  0  0  0
  6  9  1  0  0  0  0
  7 10  1  0  0  0  0
  9 11  1  0  0  0  0
 10 12  1  0  0  0  0
 11 13  1  0  0  0  0
 12 14  1  0  0  0  0
 12 15  1  0  0  0  0
 13 16  1  0  0  0  0
 13 17  1  0  0  0  0
  6  8  1  0  0  0  0
M  END
>  <MolRegNo>
470230

>  <m>
=

>  <Value>
7500

>  <Unit>
nM

>  <Type>
Ki

>  <pValue>
5.12

>  <Ligand Efficiency>
0.41

>  <Binding Efficiency>
19.96

>  <Surface Efficiency>
10.28

>  <Assay Index>
388502

>  <Assay Category>


>  <Assay Organism>


>  <Target ID>
19

>  <Target Name>
Estrogen receptor alpha

>  <Target Organism>
Homo sapiens

>  <Target Description>
Target is a single protein chain

>  <Sequence Accession>
P03372

>  <Reference>
J Med Chem 51 (20), 6512-6530 (2008)

>  <Pubmed ID>
18785725

>  <DOI>
10.1021/jm800698b

$$$$
260313
Actelion Java MolfileCreator 1.0

 30 33  0  0  0  0  0  0  0  0999 V2000
    0.0000   -0.0000   -0.0000 N   0  0  0  0  0  0  0  0  0  0  0  0
   -0.0118   -1.4867   -0.0000 C   0  0  0  0  0  0  0  0  0  0  0  0
   -1.3097    0.7552   -0.0000 C   0  0  0  0  0  0  0  0  0  0  0  0
   -1.3215   -2.2301   -0.0000 N   0  0  0  0  0  0  0  0  0  0  0  0
    1.2743   -2.2301   -0.0000 N   0  0  0  0  0  0  0  0  0  0  0  0
   -1.3215    2.2537   -0.0000 N   0  0  0  0  0  0  0  0  0  0  0  0
   -2.6195    0.0236   -0.0000 C   0  0  0  0  0  0  0  0  0  0  0  0
   -2.6313   -1.4631   -0.0000 C   0  0  0  0  0  0  0  0  0  0  0  0
    2.5605   -1.4631   -0.0000 C   0  0  0  0  0  0  0  0  0  0  0  0
   -2.6313    3.0207   -0.0000 C   0  0  0  0  0  0  0  0  0  0  0  0
   -3.9410   -2.2065   -0.0000 C   0  0  0  0  0  0  0  0  0  0  0  0
    3.8466   -2.2065   -0.0000 C   0  0  0  0  0  0  0  0  0  0  0  0
   -3.9410    2.2773   -0.0000 C   0  0  0  0  0  0  0  0  0  0  0  0
   -5.2508   -1.4395   -0.0000 C   0  0  0  0  0  0  0  0  0  0  0  0
    3.8348   -3.6932   -0.0000 C   0  0  0  0  0  0  0  0  0  0  0  0
    5.1328   -1.4395   -0.0000 C   0  0  0  0  0  0  0  0  0  0  0  0
   -3.9528    0.7906   -0.0000 C   0  0  0  0  0  0  0  0  0  0  0  0
   -5.2508    3.0443   -0.0000 C   0  0  0  0  0  0  0  0  0  0  0  0
   -6.5605   -2.1829   -0.0000 C   0  0  0  0  0  0  0  0  0  0  0  0
    5.1210   -4.4366   -0.0000 C   0  0  0  0  0  0  0  0  0  0  0  0
    6.4189   -2.1829   -0.0000 C   0  0  0  0  0  0  0  0  0  0  0  0
   -5.2626    0.0590   -0.0000 C   0  0  0  0  0  0  0  0  0  0  0  0
   -6.5605    2.3009   -0.0000 C   0  0  0  0  0  0  0  0  0  0  0  0
   -7.8702   -1.4159   -0.0000 C   0  0  0  0  0  0  0  0  0  0  0  0
   -6.5723   -3.6696   -0.0000 C   0  0  0  0  0  0  0  0  0  0  0  0
    6.4071   -3.6696   -0.0000 C   0  0  0  0  0  0  0  0  0  0  0  0
   -6.5723    0.8142   -0.0000 C   0  0  0  0  0  0  0  0  0  0  0  0
   -9.1800   -2.1593   -0.0000 C   0  0  0  0  0  0  0  0  0  0  0  0
   -7.8820   -4.4130   -0.0000 C   0  0  0  0  0  0  0  0  0  0  0  0
   -9.1918   -3.6460   -0.0000 C   0  0  0  0  0  0  0  0  0  0  0  0
  1  2  2  0  0  0  0
  1  3  1  0  0  0  0
  2  4  1  0  0  0  0
  2  5  1  0  0  0  0
  3  6  1  0  0  0  0
  3  7  2  0  0  0  0
  4  8  2  0  0  0  0
  5  9  1  0  0  0  0
  6 10  1  0  0  0  0
  8 11  1  0  0  0  0
  9 12  1  0  0  0  0
 10 13  1  0  0  0  0
 11 14  1  0  0  0  0
 12 15  2  0  0  0  0
 12 16  1  0  0  0  0
 13 17  2  0  0  0  0
 13 18  1  0  0  0  0
 14 19  1  0  0  0  0
 15 20  1  0  0  0  0
 16 21  2  0  0  0  0
 17 22  1  0  0  0  0
 18 23  2  0  0  0  0
 19 24  2  0  0  0  0
 19 25  1  0  0  0  0
 20 26  2  0  0  0  0
 22 27  2  0  0  0  0
 24 28  1  0  0  0  0
 25 29  2  0  0  0  0
 28 30  2  0  0  0  0
  7  8  1  0  0  0  0
 21 26  1  0  0  0  0
 23 27  1  0  0  0  0
 29 30  1  0  0  0  0
M  END
>  <MolRegNo>
260313

>  <m>
=

>  <Value>
49000

>  <Unit>
nM

>  <Type>
Ki

>  <pValue>
4.31

>  <Ligand Efficiency>
0.2

>  <Binding Efficiency>
10.92

>  <Surface Efficiency>
8.65

>  <Assay Index>
388505

>  <Assay Category>


>  <Assay Organism>


>  <Target ID>
19

>  <Target Name>
Estrogen receptor alpha

>  <Target Organism>
Homo sapiens

>  <Target Description>
Target is a single protein chain

>  <Sequence Accession>
P03372

>  <Reference>
J Med Chem 51 (20), 6512-6530 (2008)

>  <Pubmed ID>
18785725

>  <DOI>
10.1021/jm800698b

$$$$
492791
Actelion Java MolfileCreator 1.0

 31 34  0  0  0  0  0  0  0  0999 V2000
    0.0000   -0.0000   -0.0000 O   0  0  0  0  0  0  0  0  0  0  0  0
    0.0000   -1.4909   -0.0000 C   0  0  0  0  0  0  0  0  0  0  0  0
   -1.3120   -2.2423   -0.0000 O   0  0  0  0  0  0  0  0  0  0  0  0
    1.3001   -2.2185   -0.0000 C   0  0  0  0  0  0  0  0  0  0  0  0
    2.5882   -1.4432   -0.0000 C   0  0  0  0  0  0  0  0  0  0  0  0
    3.8883   -2.1707   -0.0000 C   0  0  0  0  0  0  0  0  0  0  0  0
    5.1764   -1.3955   -0.0000 C   0  0  0  0  0  0  0  0  0  0  0  0
    3.8883   -3.6736   -0.0000 C   0  0  0  0  0  0  0  0  0  0  0  0
    6.4764   -2.1350   -0.0000 C   0  0  0  0  0  0  0  0  0  0  0  0
    5.1883   -4.4011   -0.0000 C   0  0  0  0  0  0  0  0  0  0  0  0
    6.4645   -3.6259   -0.0000 C   0  0  0  0  0  0  0  0  0  0  0  0
    7.7646   -4.3653   -0.0000 O   0  0  0  0  0  0  0  0  0  0  0  0
    7.7646   -5.8562   -0.0000 C   0  0  0  0  0  0  0  0  0  0  0  0
    9.0646   -6.5838   -0.0000 C   0  0  0  0  0  0  0  0  0  0  0  0
    6.4526   -6.5957   -0.0000 C   0  0  0  0  0  0  0  0  0  0  0  0
   10.3528   -5.8085   -0.0000 C   0  0  0  0  0  0  0  0  0  0  0  0
    9.0646   -8.0866   -0.0000 C   0  0  0  0  0  0  0  0  0  0  0  0
    6.4407   -8.0985   -0.0000 C   0  0  0  0  0  0  0  0  0  0  0  0
    5.1406   -5.8324   -0.0000 C   0  0  0  0  0  0  0  0  0  0  0  0
   11.6409   -6.5480   -0.0000 C   0  0  0  0  0  0  0  0  0  0  0  0
   10.3289   -4.3057   -0.0000 C   0  0  0  0  0  0  0  0  0  0  0  0
    7.7526   -8.8261   -0.0000 C   0  0  0  0  0  0  0  0  0  0  0  0
   10.3647   -8.8261   -0.0000 C   0  0  0  0  0  0  0  0  0  0  0  0
    5.1287   -8.8499   -0.0000 C   0  0  0  0  0  0  0  0  0  0  0  0
    3.8286   -6.5719   -0.0000 C   0  0  0  0  0  0  0  0  0  0  0  0
   12.9290   -5.7727   -0.0000 C   0  0  0  0  0  0  0  0  0  0  0  0
   11.6051   -3.5304   -0.0000 C   0  0  0  0  0  0  0  0  0  0  0  0
   10.3528  -10.3170   -0.0000 O   0  0  0  0  0  0  0  0  0  0  0  0
    3.8167   -8.0866   -0.0000 C   0  0  0  0  0  0  0  0  0  0  0  0
   12.9052   -4.2580   -0.0000 C   0  0  0  0  0  0  0  0  0  0  0  0
   11.6528  -11.0565   -0.0000 C   0  0  0  0  0  0  0  0  0  0  0  0
  1  2  2  0  0  0  0
  2  3  1  0  0  0  0
  2  4  1  0  0  0  0
  4  5  2  0  0  0  0
  5  6  1  0  0  0  0
  6  7  2  0  0  0  0
  6  8  1  0  0  0  0
  7  9  1  0  0  0  0
  8 10  2  0  0  0  0
  9 11  2  0  0  0  0
 11 12  1  0  0  0  0
 12 13  1  0  0  0  0
 13 14  2  0  0  0  0
 13 15  1  0  0  0  0
 14 16  1  0  0  0  0
 14 17  1  0  0  0  0
 15 18  1  0  0  0  0
 15 19  2  0  0  0  0
 16 20  2  0  0  0  0
 16 21  1  0  0  0  0
 17 22  2  0  0  0  0
 17 23  1  0  0  0  0
 18 24  2  0  0  0  0
 19 25  1  0  0  0  0
 20 26  1  0  0  0  0
 21 27  2  0  0  0  0
 23 28  1  0  0  0  0
 24 29  1  0  0  0  0
 26 30  2  0  0  0  0
 28 31  1  0  0  0  0
 10 11  1  0  0  0  0
 18 22  1  0  0  0  0
 25 29  2  0  0  0  0
 27 30  1  0  0  0  0
M  END
>  <MolRegNo>
492791

>  <m>
=

>  <Value>
692

>  <Unit>
nM

>  <Type>
Ki

>  <pValue>
6.16

>  <Ligand Efficiency>
0.27

>  <Binding Efficiency>
15.01

>  <Surface Efficiency>
11.05

>  <Assay Index>
383957

>  <Assay Category>


>  <Assay Organism>
Homo sapiens

>  <Target ID>
19

>  <Target Name>
Estrogen receptor alpha

>  <Target Organism>
Homo sapiens

>  <Target Description>
Target is a single protein chain

>  <Sequence Accession>
P03372

>  <Reference>
Bioorg Med Chem Lett 18 (18), 5075-5077 (2008)

>  <Pubmed ID>
18722117

>  <DOI>
10.1016/j.bmcl.2008.07.121

$$$$
492855
Actelion Java MolfileCreator 1.0

 32 35  0  0  0  0  0  0  0  0999 V2000
    0.0000   -0.0000   -0.0000 O   0  0  0  0  0  0  0  0  0  0  0  0
    0.0000   -1.4912   -0.0000 C   0  0  0  0  0  0  0  0  0  0  0  0
   -1.3122   -2.2427   -0.0000 O   0  0  0  0  0  0  0  0  0  0  0  0
    1.3003   -2.2188   -0.0000 C   0  0  0  0  0  0  0  0  0  0  0  0
    2.5886   -1.4434   -0.0000 C   0  0  0  0  0  0  0  0  0  0  0  0
    3.8889   -2.1711   -0.0000 C   0  0  0  0  0  0  0  0  0  0  0  0
    5.1773   -1.3957   -0.0000 C   0  0  0  0  0  0  0  0  0  0  0  0
    3.8889   -3.6742   -0.0000 C   0  0  0  0  0  0  0  0  0  0  0  0
    6.4776   -2.1353   -0.0000 C   0  0  0  0  0  0  0  0  0  0  0  0
    5.1892   -4.4019   -0.0000 C   0  0  0  0  0  0  0  0  0  0  0  0
    6.4656   -3.6265   -0.0000 C   0  0  0  0  0  0  0  0  0  0  0  0
    7.7659   -4.3661   -0.0000 O   0  0  0  0  0  0  0  0  0  0  0  0
    7.7659   -5.8572   -0.0000 C   0  0  0  0  0  0  0  0  0  0  0  0
    9.0662   -6.5849   -0.0000 C   0  0  0  0  0  0  0  0  0  0  0  0
    6.4537   -6.5969   -0.0000 C   0  0  0  0  0  0  0  0  0  0  0  0
   10.3546   -5.8095   -0.0000 C   0  0  0  0  0  0  0  0  0  0  0  0
    9.0662   -8.0880   -0.0000 C   0  0  0  0  0  0  0  0  0  0  0  0
    6.4418   -8.0999   -0.0000 C   0  0  0  0  0  0  0  0  0  0  0  0
    5.1415   -5.8334   -0.0000 C   0  0  0  0  0  0  0  0  0  0  0  0
   11.6429   -6.5491   -0.0000 C   0  0  0  0  0  0  0  0  0  0  0  0
   10.3307   -4.3064   -0.0000 C   0  0  0  0  0  0  0  0  0  0  0  0
    7.7540   -8.8276   -0.0000 C   0  0  0  0  0  0  0  0  0  0  0  0
   10.3665   -8.8276   -0.0000 C   0  0  0  0  0  0  0  0  0  0  0  0
    5.1296   -8.8515   -0.0000 C   0  0  0  0  0  0  0  0  0  0  0  0
    3.8293   -6.5730   -0.0000 C   0  0  0  0  0  0  0  0  0  0  0  0
   12.9313   -5.7737   -0.0000 C   0  0  0  0  0  0  0  0  0  0  0  0
   11.6071   -3.5310   -0.0000 C   0  0  0  0  0  0  0  0  0  0  0  0
   10.3665  -10.3188   -0.0000 C   0  0  0  0  0  0  0  0  0  0  0  0
    3.8174   -8.0880   -0.0000 C   0  0  0  0  0  0  0  0  0  0  0  0
   12.9074   -4.2587   -0.0000 C   0  0  0  0  0  0  0  0  0  0  0  0
   11.6668  -11.0584   -0.0000 C   0  0  0  0  0  0  0  0  0  0  0  0
   11.6548  -12.5495   -0.0000 C   0  0  0  0  0  0  0  0  0  0  0  0
  1  2  2  0  0  0  0
  2  3  1  0  0  0  0
  2  4  1  0  0  0  0
  4  5  2  0  0  0  0
  5  6  1  0  0  0  0
  6  7  2  0  0  0  0
  6  8  1  0  0  0  0
  7  9  1  0  0  0  0
  8 10  2  0  0  0  0
  9 11  2  0  0  0  0
 11 12  1  0  0  0  0
 12 13  1  0  0  0  0
 13 14  2  0  0  0  0
 13 15  1  0  0  0  0
 14 16  1  0  0  0  0
 14 17  1  0  0  0  0
 15 18  1  0  0  0  0
 15 19  2  0  0  0  0
 16 20  2  0  0  0  0
 16 21  1  0  0  0  0
 17 22  2  0  0  0  0
 17 23  1  0  0  0  0
 18 24  2  0  0  0  0
 19 25  1  0  0  0  0
 20 26  1  0  0  0  0
 21 27  2  0  0  0  0
 23 28  1  0  0  0  0
 24 29  1  0  0  0  0
 26 30  2  0  0  0  0
 28 31  1  0  0  0  0
 31 32  1  0  0  0  0
 10 11  1  0  0  0  0
 18 22  1  0  0  0  0
 25 29  2  0  0  0  0
 27 30  1  0  0  0  0
M  END
>  <MolRegNo>
492855

>  <m>
=

>  <Value>
977

>  <Unit>
nM

>  <Type>
Ki

>  <pValue>
6.01

>  <Ligand Efficiency>
0.26

>  <Binding Efficiency>
14.22

>  <Surface Efficiency>
12.92

>  <Assay Index>
383957

>  <Assay Category>


>  <Assay Organism>
Homo sapiens

>  <Target ID>
19

>  <Target Name>
Estrogen receptor alpha

>  <Target Organism>
Homo sapiens

>  <Target Description>
Target is a single protein chain

>  <Sequence Accession>
P03372

>  <Reference>
Bioorg Med Chem Lett 18 (18), 5075-5077 (2008)

>  <Pubmed ID>
18722117

>  <DOI>
10.1016/j.bmcl.2008.07.121

$$$$
492856
Actelion Java MolfileCreator 1.0

 33 36  0  0  0  0  0  0  0  0999 V2000
    0.0000   -0.0000   -0.0000 F   0  0  0  0  0  0  0  0  0  0  0  0
   -1.3026   -0.7460   -0.0000 C   0  0  0  0  0  0  0  0  0  0  0  0
   -1.3026   -2.2263   -0.0000 C   0  0  0  0  0  0  0  0  0  0  0  0
   -2.6171   -0.0000   -0.0000 C   0  0  0  0  0  0  0  0  0  0  0  0
   -2.6052   -2.9723   -0.0000 C   0  0  0  0  0  0  0  0  0  0  0  0
   -3.9079   -0.7460   -0.0000 C   0  0  0  0  0  0  0  0  0  0  0  0
   -3.9079   -2.2145   -0.0000 C   0  0  0  0  0  0  0  0  0  0  0  0
   -5.2105   -2.9605   -0.0000 C   0  0  0  0  0  0  0  0  0  0  0  0
   -6.5250   -2.2145   -0.0000 C   0  0  0  0  0  0  0  0  0  0  0  0
   -5.2105   -4.4526   -0.0000 C   0  0  0  0  0  0  0  0  0  0  0  0
   -6.5486   -0.7105   -0.0000 O   0  0  0  0  0  0  0  0  0  0  0  0
   -7.8276   -2.9487   -0.0000 C   0  0  0  0  0  0  0  0  0  0  0  0
   -6.5131   -5.1868   -0.0000 C   0  0  0  0  0  0  0  0  0  0  0  0
   -3.9197   -5.1868   -0.0000 C   0  0  0  0  0  0  0  0  0  0  0  0
   -7.8631    0.0474   -0.0000 C   0  0  0  0  0  0  0  0  0  0  0  0
   -7.8394   -4.4408   -0.0000 C   0  0  0  0  0  0  0  0  0  0  0  0
   -9.1302   -2.1908   -0.0000 C   0  0  0  0  0  0  0  0  0  0  0  0
   -3.9316   -6.6671   -0.0000 C   0  0  0  0  0  0  0  0  0  0  0  0
   -7.8749    1.5513   -0.0000 C   0  0  0  0  0  0  0  0  0  0  0  0
   -9.1539   -0.6987   -0.0000 C   0  0  0  0  0  0  0  0  0  0  0  0
   -9.1420   -5.1868   -0.0000 C   0  0  0  0  0  0  0  0  0  0  0  0
  -10.4328   -2.9250   -0.0000 C   0  0  0  0  0  0  0  0  0  0  0  0
   -2.6408   -7.3894   -0.0000 C   0  0  0  0  0  0  0  0  0  0  0  0
   -9.1894    2.3092   -0.0000 C   0  0  0  0  0  0  0  0  0  0  0  0
  -10.4684    0.0474   -0.0000 C   0  0  0  0  0  0  0  0  0  0  0  0
  -10.4447   -4.4289   -0.0000 C   0  0  0  0  0  0  0  0  0  0  0  0
   -2.6408   -8.8697   -0.0000 C   0  0  0  0  0  0  0  0  0  0  0  0
  -10.4920    1.5631   -0.0000 C   0  0  0  0  0  0  0  0  0  0  0  0
  -11.8065    2.3092   -0.0000 C   0  0  0  0  0  0  0  0  0  0  0  0
  -13.1091    1.5631   -0.0000 C   0  0  0  0  0  0  0  0  0  0  0  0
  -14.4236    2.3092   -0.0000 C   0  0  0  0  0  0  0  0  0  0  0  0
  -14.4473    3.8131   -0.0000 O   0  0  0  0  0  0  0  0  0  0  0  0
  -15.7262    1.5631   -0.0000 O   0  0  0  0  0  0  0  0  0  0  0  0
  1  2  1  0  0  0  0
  2  3  2  0  0  0  0
  2  4  1  0  0  0  0
  3  5  1  0  0  0  0
  4  6  2  0  0  0  0
  5  7  2  0  0  0  0
  7  8  1  0  0  0  0
  8  9  2  0  0  0  0
  8 10  1  0  0  0  0
  9 11  1  0  0  0  0
  9 12  1  0  0  0  0
 10 13  2  0  0  0  0
 10 14  1  0  0  0  0
 11 15  1  0  0  0  0
 12 16  1  0  0  0  0
 12 17  2  0  0  0  0
 14 18  1  0  0  0  0
 15 19  2  0  0  0  0
 15 20  1  0  0  0  0
 16 21  2  0  0  0  0
 17 22  1  0  0  0  0
 18 23  1  0  0  0  0
 19 24  1  0  0  0  0
 20 25  2  0  0  0  0
 21 26  1  0  0  0  0
 23 27  1  0  0  0  0
 24 28  2  0  0  0  0
 28 29  1  0  0  0  0
 29 30  2  0  0  0  0
 30 31  1  0  0  0  0
 31 32  2  0  0  0  0
 31 33  1  0  0  0  0
  6  7  1  0  0  0  0
 13 16  1  0  0  0  0
 22 26  2  0  0  0  0
 25 28  1  0  0  0  0
M  END
>  <MolRegNo>
492856

>  <m>
=

>  <Value>
724

>  <Unit>
nM

>  <Type>
Ki

>  <pValue>
6.14

>  <Ligand Efficiency>
0.25

>  <Binding Efficiency>
13.94

>  <Surface Efficiency>
13.2

>  <Assay Index>
383957

>  <Assay Category>


>  <Assay Organism>
Homo sapiens

>  <Target ID>
19

>  <Target Name>
Estrogen receptor alpha

>  <Target Organism>
Homo sapiens

>  <Target Description>
Target is a single protein chain

>  <Sequence Accession>
P03372

>  <Reference>
Bioorg Med Chem Lett 18 (18), 5075-5077 (2008)

>  <Pubmed ID>
18722117

>  <DOI>
10.1016/j.bmcl.2008.07.121

$$$$
492857
Actelion Java MolfileCreator 1.0

 34 37  0  0  0  0  0  0  0  0999 V2000
    0.0000   -0.0000   -0.0000 O   0  0  0  0  0  0  0  0  0  0  0  0
    0.0000   -1.4915   -0.0000 C   0  0  0  0  0  0  0  0  0  0  0  0
   -1.3125   -2.2432   -0.0000 O   0  0  0  0  0  0  0  0  0  0  0  0
    1.3006   -2.2193   -0.0000 C   0  0  0  0  0  0  0  0  0  0  0  0
    2.5892   -1.4438   -0.0000 C   0  0  0  0  0  0  0  0  0  0  0  0
    3.8898   -2.1716   -0.0000 C   0  0  0  0  0  0  0  0  0  0  0  0
    5.1784   -1.3960   -0.0000 C   0  0  0  0  0  0  0  0  0  0  0  0
    3.8898   -3.6750   -0.0000 C   0  0  0  0  0  0  0  0  0  0  0  0
    6.4790   -2.1358   -0.0000 C   0  0  0  0  0  0  0  0  0  0  0  0
    5.1903   -4.4028   -0.0000 C   0  0  0  0  0  0  0  0  0  0  0  0
    6.4670   -3.6273   -0.0000 C   0  0  0  0  0  0  0  0  0  0  0  0
    7.7676   -4.3670   -0.0000 O   0  0  0  0  0  0  0  0  0  0  0  0
    7.7676   -5.8585   -0.0000 C   0  0  0  0  0  0  0  0  0  0  0  0
    9.0682   -6.5864   -0.0000 C   0  0  0  0  0  0  0  0  0  0  0  0
    6.4551   -6.5983   -0.0000 C   0  0  0  0  0  0  0  0  0  0  0  0
   10.3568   -5.8108   -0.0000 C   0  0  0  0  0  0  0  0  0  0  0  0
    9.0682   -8.0898   -0.0000 C   0  0  0  0  0  0  0  0  0  0  0  0
    6.4432   -8.1017   -0.0000 C   0  0  0  0  0  0  0  0  0  0  0  0
    5.1426   -5.8347   -0.0000 C   0  0  0  0  0  0  0  0  0  0  0  0
   11.6455   -6.5506   -0.0000 C   0  0  0  0  0  0  0  0  0  0  0  0
   10.3330   -4.3074   -0.0000 C   0  0  0  0  0  0  0  0  0  0  0  0
    7.7557   -8.8295   -0.0000 C   0  0  0  0  0  0  0  0  0  0  0  0
   10.3688   -8.8295   -0.0000 C   0  0  0  0  0  0  0  0  0  0  0  0
    5.1307   -8.8534   -0.0000 C   0  0  0  0  0  0  0  0  0  0  0  0
    3.8301   -6.5744   -0.0000 C   0  0  0  0  0  0  0  0  0  0  0  0
   12.9341   -5.7750   -0.0000 C   0  0  0  0  0  0  0  0  0  0  0  0
   11.6097   -3.5318   -0.0000 C   0  0  0  0  0  0  0  0  0  0  0  0
   10.3568  -10.3210   -0.0000 C   0  0  0  0  0  0  0  0  0  0  0  0
    3.8182   -8.0898   -0.0000 C   0  0  0  0  0  0  0  0  0  0  0  0
   12.9102   -4.2597   -0.0000 C   0  0  0  0  0  0  0  0  0  0  0  0
   11.6574  -11.0489   -0.0000 C   0  0  0  0  0  0  0  0  0  0  0  0
   14.1989   -3.4841   -0.0000 O   0  0  0  0  0  0  0  0  0  0  0  0
   11.6574  -12.5403   -0.0000 C   0  0  0  0  0  0  0  0  0  0  0  0
   15.4994   -4.2119   -0.0000 C   0  0  0  0  0  0  0  0  0  0  0  0
  1  2  2  0  0  0  0
  2  3  1  0  0  0  0
  2  4  1  0  0  0  0
  4  5  2  0  0  0  0
  5  6  1  0  0  0  0
  6  7  2  0  0  0  0
  6  8  1  0  0  0  0
  7  9  1  0  0  0  0
  8 10  2  0  0  0  0
  9 11  2  0  0  0  0
 11 12  1  0  0  0  0
 12 13  1  0  0  0  0
 13 14  2  0  0  0  0
 13 15  1  0  0  0  0
 14 16  1  0  0  0  0
 14 17  1  0  0  0  0
 15 18  1  0  0  0  0
 15 19  2  0  0  0  0
 16 20  2  0  0  0  0
 16 21  1  0  0  0  0
 17 22  2  0  0  0  0
 17 23  1  0  0  0  0
 18 24  2  0  0  0  0
 19 25  1  0  0  0  0
 20 26  1  0  0  0  0
 21 27  2  0  0  0  0
 23 28  1  0  0  0  0
 24 29  1  0  0  0  0
 26 30  2  0  0  0  0
 28 31  1  0  0  0  0
 30 32  1  0  0  0  0
 31 33  1  0  0  0  0
 32 34  1  0  0  0  0
 10 11  1  0  0  0  0
 18 22  1  0  0  0  0
 25 29  2  0  0  0  0
 27 30  1  0  0  0  0
M  END
>  <MolRegNo>
492857

>  <m>
=

>  <Value>
158

>  <Unit>
nM

>  <Type>
Ki

>  <pValue>
6.8

>  <Ligand Efficiency>
0.27

>  <Binding Efficiency>
15.03

>  <Surface Efficiency>
12.2

>  <Assay Index>
383957

>  <Assay Category>


>  <Assay Organism>
Homo sapiens

>  <Target ID>
19

>  <Target Name>
Estrogen receptor alpha

>  <Target Organism>
Homo sapiens

>  <Target Description>
Target is a single protein chain

>  <Sequence Accession>
P03372

>  <Reference>
Bioorg Med Chem Lett 18 (18), 5075-5077 (2008)

>  <Pubmed ID>
18722117

>  <DOI>
10.1016/j.bmcl.2008.07.121

$$$$
492858
Actelion Java MolfileCreator 1.0

 33 36  0  0  0  0  0  0  0  0999 V2000
    0.0000   -0.0000   -0.0000 O   0  0  0  0  0  0  0  0  0  0  0  0
    0.0000   -1.4912   -0.0000 C   0  0  0  0  0  0  0  0  0  0  0  0
   -1.3123   -2.2428   -0.0000 O   0  0  0  0  0  0  0  0  0  0  0  0
    1.3003   -2.2189   -0.0000 C   0  0  0  0  0  0  0  0  0  0  0  0
    2.5887   -1.4435   -0.0000 C   0  0  0  0  0  0  0  0  0  0  0  0
    3.8891   -2.1712   -0.0000 C   0  0  0  0  0  0  0  0  0  0  0  0
    5.1775   -1.3958   -0.0000 C   0  0  0  0  0  0  0  0  0  0  0  0
    3.8891   -3.6743   -0.0000 C   0  0  0  0  0  0  0  0  0  0  0  0
    6.4778   -2.1354   -0.0000 C   0  0  0  0  0  0  0  0  0  0  0  0
    5.1894   -4.4021   -0.0000 C   0  0  0  0  0  0  0  0  0  0  0  0
    6.4659   -3.6266   -0.0000 C   0  0  0  0  0  0  0  0  0  0  0  0
    7.7662   -4.3663   -0.0000 O   0  0  0  0  0  0  0  0  0  0  0  0
    7.7662   -5.8575   -0.0000 C   0  0  0  0  0  0  0  0  0  0  0  0
    9.0666   -6.5852   -0.0000 C   0  0  0  0  0  0  0  0  0  0  0  0
    6.4540   -6.5971   -0.0000 C   0  0  0  0  0  0  0  0  0  0  0  0
   10.3550   -5.8098   -0.0000 C   0  0  0  0  0  0  0  0  0  0  0  0
    9.0666   -8.0883   -0.0000 C   0  0  0  0  0  0  0  0  0  0  0  0
    6.4420   -8.1003   -0.0000 C   0  0  0  0  0  0  0  0  0  0  0  0
    5.1417   -5.8336   -0.0000 C   0  0  0  0  0  0  0  0  0  0  0  0
   11.6434   -6.5494   -0.0000 C   0  0  0  0  0  0  0  0  0  0  0  0
   10.3311   -4.3066   -0.0000 C   0  0  0  0  0  0  0  0  0  0  0  0
    7.7543   -8.8280   -0.0000 C   0  0  0  0  0  0  0  0  0  0  0  0
   10.3669   -8.8280   -0.0000 C   0  0  0  0  0  0  0  0  0  0  0  0
    5.1298   -8.8518   -0.0000 C   0  0  0  0  0  0  0  0  0  0  0  0
    3.8294   -6.5733   -0.0000 C   0  0  0  0  0  0  0  0  0  0  0  0
   12.9318   -5.7740   -0.0000 C   0  0  0  0  0  0  0  0  0  0  0  0
   11.6076   -3.5312   -0.0000 C   0  0  0  0  0  0  0  0  0  0  0  0
   10.3550  -10.3192   -0.0000 C   0  0  0  0  0  0  0  0  0  0  0  0
    3.8175   -8.0883   -0.0000 C   0  0  0  0  0  0  0  0  0  0  0  0
   12.9079   -4.2589   -0.0000 C   0  0  0  0  0  0  0  0  0  0  0  0
   11.6553  -11.0469   -0.0000 C   0  0  0  0  0  0  0  0  0  0  0  0
   14.1963   -3.4835   -0.0000 O   0  0  0  0  0  0  0  0  0  0  0  0
   11.6553  -12.5381   -0.0000 C   0  0  0  0  0  0  0  0  0  0  0  0
  1  2  2  0  0  0  0
  2  3  1  0  0  0  0
  2  4  1  0  0  0  0
  4  5  2  0  0  0  0
  5  6  1  0  0  0  0
  6  7  2  0  0  0  0
  6  8  1  0  0  0  0
  7  9  1  0  0  0  0
  8 10  2  0  0  0  0
  9 11  2  0  0  0  0
 11 12  1  0  0  0  0
 12 13  1  0  0  0  0
 13 14  2  0  0  0  0
 13 15  1  0  0  0  0
 14 16  1  0  0  0  0
 14 17  1  0  0  0  0
 15 18  1  0  0  0  0
 15 19  2  0  0  0  0
 16 20  2  0  0  0  0
 16 21  1  0  0  0  0
 17 22  2  0  0  0  0
 17 23  1  0  0  0  0
 18 24  2  0  0  0  0
 19 25  1  0  0  0  0
 20 26  1  0  0  0  0
 21 27  2  0  0  0  0
 23 28  1  0  0  0  0
 24 29  1  0  0  0  0
 26 30  2  0  0  0  0
 28 31  1  0  0  0  0
 30 32  1  0  0  0  0
 31 33  1  0  0  0  0
 10 11  1  0  0  0  0
 18 22  1  0  0  0  0
 25 29  2  0  0  0  0
 27 30  1  0  0  0  0
M  END
>  <MolRegNo>
492858

>  <m>
=

>  <Value>
52

>  <Unit>
nM

>  <Type>
Ki

>  <pValue>
7.28

>  <Ligand Efficiency>
0.3

>  <Binding Efficiency>
16.61

>  <Surface Efficiency>
10.91

>  <Assay Index>
383957

>  <Assay Category>


>  <Assay Organism>
Homo sapiens

>  <Target ID>
19

>  <Target Name>
Estrogen receptor alpha

>  <Target Organism>
Homo sapiens

>  <Target Description>
Target is a single protein chain

>  <Sequence Accession>
P03372

>  <Reference>
Bioorg Med Chem Lett 18 (18), 5075-5077 (2008)

>  <Pubmed ID>
18722117

>  <DOI>
10.1016/j.bmcl.2008.07.121

$$$$
491907
Actelion Java MolfileCreator 1.0

 32 36  0  0  0  0  0  0  0  0999 V2000
    0.0000   -0.0000   -0.0000 O   0  0  0  0  0  0  0  0  0  0  0  0
    0.0000   -1.4908   -0.0000 C   0  0  0  0  0  0  0  0  0  0  0  0
   -1.3119   -2.2421   -0.0000 O   0  0  0  0  0  0  0  0  0  0  0  0
    1.2999   -2.2182   -0.0000 C   0  0  0  0  0  0  0  0  0  0  0  0
    2.5880   -1.4431   -0.0000 C   0  0  0  0  0  0  0  0  0  0  0  0
    3.8879   -2.1705   -0.0000 C   0  0  0  0  0  0  0  0  0  0  0  0
    5.1759   -1.3953   -0.0000 C   0  0  0  0  0  0  0  0  0  0  0  0
    3.8879   -3.6732   -0.0000 C   0  0  0  0  0  0  0  0  0  0  0  0
    6.4758   -2.1348   -0.0000 C   0  0  0  0  0  0  0  0  0  0  0  0
    5.1878   -4.4007   -0.0000 C   0  0  0  0  0  0  0  0  0  0  0  0
    6.4639   -3.6255   -0.0000 C   0  0  0  0  0  0  0  0  0  0  0  0
    7.7639   -4.3649   -0.0000 O   0  0  0  0  0  0  0  0  0  0  0  0
    7.7639   -5.8557   -0.0000 C   0  0  0  0  0  0  0  0  0  0  0  0
    9.0638   -6.5832   -0.0000 C   0  0  0  0  0  0  0  0  0  0  0  0
    6.4520   -6.5951   -0.0000 C   0  0  0  0  0  0  0  0  0  0  0  0
   10.3518   -5.8080   -0.0000 C   0  0  0  0  0  0  0  0  0  0  0  0
    9.0638   -8.0859   -0.0000 C   0  0  0  0  0  0  0  0  0  0  0  0
    6.4401   -8.0978   -0.0000 C   0  0  0  0  0  0  0  0  0  0  0  0
    5.1401   -5.8318   -0.0000 C   0  0  0  0  0  0  0  0  0  0  0  0
   11.6398   -6.5474   -0.0000 C   0  0  0  0  0  0  0  0  0  0  0  0
   10.3280   -4.3053   -0.0000 C   0  0  0  0  0  0  0  0  0  0  0  0
    7.7519   -8.8253   -0.0000 C   0  0  0  0  0  0  0  0  0  0  0  0
   10.3637   -8.8253   -0.0000 C   0  0  0  0  0  0  0  0  0  0  0  0
    5.1282   -8.8491   -0.0000 C   0  0  0  0  0  0  0  0  0  0  0  0
    3.8283   -6.5712   -0.0000 C   0  0  0  0  0  0  0  0  0  0  0  0
   12.9278   -5.7722   -0.0000 C   0  0  0  0  0  0  0  0  0  0  0  0
   11.6040   -3.5301   -0.0000 C   0  0  0  0  0  0  0  0  0  0  0  0
   11.1151  -10.1014   -0.0000 C   0  0  0  0  0  0  0  0  0  0  0  0
   11.8664   -8.8014   -0.0000 C   0  0  0  0  0  0  0  0  0  0  0  0
    3.8163   -8.0859   -0.0000 C   0  0  0  0  0  0  0  0  0  0  0  0
   12.9040   -4.2576   -0.0000 C   0  0  0  0  0  0  0  0  0  0  0  0
    2.5045   -8.8253   -0.0000 O   0  0  0  0  0  0  0  0  0  0  0  0
  1  2  2  0  0  0  0
  2  3  1  0  0  0  0
  2  4  1  0  0  0  0
  4  5  2  0  0  0  0
  5  6  1  0  0  0  0
  6  7  2  0  0  0  0
  6  8  1  0  0  0  0
  7  9  1  0  0  0  0
  8 10  2  0  0  0  0
  9 11  2  0  0  0  0
 11 12  1  0  0  0  0
 12 13  1  0  0  0  0
 13 14  2  0  0  0  0
 13 15  1  0  0  0  0
 14 16  1  0  0  0  0
 14 17  1  0  0  0  0
 15 18  1  0  0  0  0
 15 19  2  0  0  0  0
 16 20  2  0  0  0  0
 16 21  1  0  0  0  0
 17 22  2  0  0  0  0
 17 23  1  0  0  0  0
 18 24  2  0  0  0  0
 19 25  1  0  0  0  0
 20 26  1  0  0  0  0
 21 27  2  0  0  0  0
 23 28  1  0  0  0  0
 23 29  1  0  0  0  0
 24 30  1  0  0  0  0
 26 31  2  0  0  0  0
 30 32  1  0  0  0  0
 10 11  1  0  0  0  0
 18 22  1  0  0  0  0
 25 30  2  0  0  0  0
 27 31  1  0  0  0  0
 28 29  1  0  0  0  0
M  END
>  <MolRegNo>
491907

>  <m>
=

>  <Value>
60

>  <Unit>
nM

>  <Type>
Ki

>  <pValue>
7.22

>  <Ligand Efficiency>
0.31

>  <Binding Efficiency>
17.09

>  <Surface Efficiency>
10.82

>  <Assay Index>
383957

>  <Assay Category>


>  <Assay Organism>
Homo sapiens

>  <Target ID>
19

>  <Target Name>
Estrogen receptor alpha

>  <Target Organism>
Homo sapiens

>  <Target Description>
Target is a single protein chain

>  <Sequence Accession>
P03372

>  <Reference>
Bioorg Med Chem Lett 18 (18), 5075-5077 (2008)

>  <Pubmed ID>
18722117

>  <DOI>
10.1016/j.bmcl.2008.07.121

$$$$
491908
Actelion Java MolfileCreator 1.0

 33 36  0  0  0  0  0  0  0  0999 V2000
    0.0000   -0.0000   -0.0000 O   0  0  0  0  0  0  0  0  0  0  0  0
    0.0000   -1.4910   -0.0000 C   0  0  0  0  0  0  0  0  0  0  0  0
   -1.3121   -2.2424   -0.0000 O   0  0  0  0  0  0  0  0  0  0  0  0
    1.3001   -2.2186   -0.0000 C   0  0  0  0  0  0  0  0  0  0  0  0
    2.5883   -1.4433   -0.0000 C   0  0  0  0  0  0  0  0  0  0  0  0
    3.8885   -2.1709   -0.0000 C   0  0  0  0  0  0  0  0  0  0  0  0
    5.1767   -1.3956   -0.0000 C   0  0  0  0  0  0  0  0  0  0  0  0
    3.8885   -3.6738   -0.0000 C   0  0  0  0  0  0  0  0  0  0  0  0
    6.4768   -2.1351   -0.0000 C   0  0  0  0  0  0  0  0  0  0  0  0
    5.1886   -4.4014   -0.0000 C   0  0  0  0  0  0  0  0  0  0  0  0
    6.4649   -3.6261   -0.0000 C   0  0  0  0  0  0  0  0  0  0  0  0
    7.7650   -4.3656   -0.0000 O   0  0  0  0  0  0  0  0  0  0  0  0
    7.7650   -5.8566   -0.0000 C   0  0  0  0  0  0  0  0  0  0  0  0
    9.0652   -6.5842   -0.0000 C   0  0  0  0  0  0  0  0  0  0  0  0
    6.4530   -6.5961   -0.0000 C   0  0  0  0  0  0  0  0  0  0  0  0
   10.3534   -5.8089   -0.0000 C   0  0  0  0  0  0  0  0  0  0  0  0
    9.0652   -8.0871   -0.0000 C   0  0  0  0  0  0  0  0  0  0  0  0
    6.4410   -8.0990   -0.0000 C   0  0  0  0  0  0  0  0  0  0  0  0
    5.1409   -5.8327   -0.0000 C   0  0  0  0  0  0  0  0  0  0  0  0
   11.6416   -6.5484   -0.0000 C   0  0  0  0  0  0  0  0  0  0  0  0
   10.3295   -4.3059   -0.0000 C   0  0  0  0  0  0  0  0  0  0  0  0
    7.7531   -8.8266   -0.0000 C   0  0  0  0  0  0  0  0  0  0  0  0
   10.3653   -8.8266   -0.0000 C   0  0  0  0  0  0  0  0  0  0  0  0
    5.1290   -8.8504   -0.0000 C   0  0  0  0  0  0  0  0  0  0  0  0
    3.8288   -6.5722   -0.0000 C   0  0  0  0  0  0  0  0  0  0  0  0
   12.9298   -5.7731   -0.0000 C   0  0  0  0  0  0  0  0  0  0  0  0
   11.6058   -3.5306   -0.0000 C   0  0  0  0  0  0  0  0  0  0  0  0
   10.3653  -10.3176   -0.0000 C   0  0  0  0  0  0  0  0  0  0  0  0
    3.8169   -8.0871   -0.0000 C   0  0  0  0  0  0  0  0  0  0  0  0
   12.9059   -4.2582   -0.0000 C   0  0  0  0  0  0  0  0  0  0  0  0
   11.6654  -11.0571   -0.0000 C   0  0  0  0  0  0  0  0  0  0  0  0
    2.5048   -8.8266   -0.0000 O   0  0  0  0  0  0  0  0  0  0  0  0
   11.6535  -12.5481   -0.0000 C   0  0  0  0  0  0  0  0  0  0  0  0
  1  2  2  0  0  0  0
  2  3  1  0  0  0  0
  2  4  1  0  0  0  0
  4  5  2  0  0  0  0
  5  6  1  0  0  0  0
  6  7  2  0  0  0  0
  6  8  1  0  0  0  0
  7  9  1  0  0  0  0
  8 10  2  0  0  0  0
  9 11  2  0  0  0  0
 11 12  1  0  0  0  0
 12 13  1  0  0  0  0
 13 14  2  0  0  0  0
 13 15  1  0  0  0  0
 14 16  1  0  0  0  0
 14 17  1  0  0  0  0
 15 18  1  0  0  0  0
 15 19  2  0  0  0  0
 16 20  2  0  0  0  0
 16 21  1  0  0  0  0
 17 22  2  0  0  0  0
 17 23  1  0  0  0  0
 18 24  2  0  0  0  0
 19 25  1  0  0  0  0
 20 26  1  0  0  0  0
 21 27  2  0  0  0  0
 23 28  1  0  0  0  0
 24 29  1  0  0  0  0
 26 30  2  0  0  0  0
 28 31  1  0  0  0  0
 29 32  1  0  0  0  0
 31 33  1  0  0  0  0
 10 11  1  0  0  0  0
 18 22  1  0  0  0  0
 25 29  2  0  0  0  0
 27 30  1  0  0  0  0
M  END
>  <MolRegNo>
491908

>  <m>
=

>  <Value>
4

>  <Unit>
nM

>  <Type>
Ki

>  <pValue>
8.4

>  <Ligand Efficiency>
0.35

>  <Binding Efficiency>
19.15

>  <Surface Efficiency>
12.58

>  <Assay Index>
383957

>  <Assay Category>


>  <Assay Organism>
Homo sapiens

>  <Target ID>
19

>  <Target Name>
Estrogen receptor alpha

>  <Target Organism>
Homo sapiens

>  <Target Description>
Target is a single protein chain

>  <Sequence Accession>
P03372

>  <Reference>
Bioorg Med Chem Lett 18 (18), 5075-5077 (2008)

>  <Pubmed ID>
18722117

>  <DOI>
10.1016/j.bmcl.2008.07.121

$$$$
491909
Actelion Java MolfileCreator 1.0

 33 36  0  0  0  0  0  0  0  0999 V2000
    0.0000   -0.0000   -0.0000 O   0  0  0  0  0  0  0  0  0  0  0  0
    0.0000   -1.4904   -0.0000 C   0  0  0  0  0  0  0  0  0  0  0  0
   -1.3116   -2.2416   -0.0000 O   0  0  0  0  0  0  0  0  0  0  0  0
    1.2996   -2.2177   -0.0000 C   0  0  0  0  0  0  0  0  0  0  0  0
    2.5873   -1.4427   -0.0000 C   0  0  0  0  0  0  0  0  0  0  0  0
    3.8870   -2.1700   -0.0000 C   0  0  0  0  0  0  0  0  0  0  0  0
    5.1747   -1.3950   -0.0000 C   0  0  0  0  0  0  0  0  0  0  0  0
    3.8870   -3.6723   -0.0000 C   0  0  0  0  0  0  0  0  0  0  0  0
    6.4743   -2.1343   -0.0000 C   0  0  0  0  0  0  0  0  0  0  0  0
    5.1866   -4.3997   -0.0000 C   0  0  0  0  0  0  0  0  0  0  0  0
    6.4624   -3.6247   -0.0000 C   0  0  0  0  0  0  0  0  0  0  0  0
    7.7620   -4.3639   -0.0000 O   0  0  0  0  0  0  0  0  0  0  0  0
    7.7620   -5.8543   -0.0000 C   0  0  0  0  0  0  0  0  0  0  0  0
    9.0616   -6.5816   -0.0000 C   0  0  0  0  0  0  0  0  0  0  0  0
    6.4504   -6.5935   -0.0000 C   0  0  0  0  0  0  0  0  0  0  0  0
   10.3493   -5.8066   -0.0000 C   0  0  0  0  0  0  0  0  0  0  0  0
    9.0616   -8.0839   -0.0000 C   0  0  0  0  0  0  0  0  0  0  0  0
    6.4385   -8.0958   -0.0000 C   0  0  0  0  0  0  0  0  0  0  0  0
    5.1389   -5.8304   -0.0000 C   0  0  0  0  0  0  0  0  0  0  0  0
   11.6370   -6.5458   -0.0000 C   0  0  0  0  0  0  0  0  0  0  0  0
   10.3255   -4.3043   -0.0000 C   0  0  0  0  0  0  0  0  0  0  0  0
    7.7501   -8.8232   -0.0000 C   0  0  0  0  0  0  0  0  0  0  0  0
   10.3613   -8.8232   -0.0000 C   0  0  0  0  0  0  0  0  0  0  0  0
    5.1270   -8.8470   -0.0000 C   0  0  0  0  0  0  0  0  0  0  0  0
    3.8273   -6.5697   -0.0000 C   0  0  0  0  0  0  0  0  0  0  0  0
   12.9247   -5.7708   -0.0000 C   0  0  0  0  0  0  0  0  0  0  0  0
   11.6013   -3.5293   -0.0000 C   0  0  0  0  0  0  0  0  0  0  0  0
   10.3613  -10.3136   -0.0000 C   0  0  0  0  0  0  0  0  0  0  0  0
    3.8154   -8.0839   -0.0000 C   0  0  0  0  0  0  0  0  0  0  0  0
   12.9009   -4.2566   -0.0000 C   0  0  0  0  0  0  0  0  0  0  0  0
   11.6609  -11.0528   -0.0000 C   0  0  0  0  0  0  0  0  0  0  0  0
    9.0497  -11.0647   -0.0000 C   0  0  0  0  0  0  0  0  0  0  0  0
    2.5039   -8.8232   -0.0000 O   0  0  0  0  0  0  0  0  0  0  0  0
  1  2  2  0  0  0  0
  2  3  1  0  0  0  0
  2  4  1  0  0  0  0
  4  5  2  0  0  0  0
  5  6  1  0  0  0  0
  6  7  2  0  0  0  0
  6  8  1  0  0  0  0
  7  9  1  0  0  0  0
  8 10  2  0  0  0  0
  9 11  2  0  0  0  0
 11 12  1  0  0  0  0
 12 13  1  0  0  0  0
 13 14  2  0  0  0  0
 13 15  1  0  0  0  0
 14 16  1  0  0  0  0
 14 17  1  0  0  0  0
 15 18  1  0  0  0  0
 15 19  2  0  0  0  0
 16 20  2  0  0  0  0
 16 21  1  0  0  0  0
 17 22  2  0  0  0  0
 17 23  1  0  0  0  0
 18 24  2  0  0  0  0
 19 25  1  0  0  0  0
 20 26  1  0  0  0  0
 21 27  2  0  0  0  0
 23 28  1  0  0  0  0
 24 29  1  0  0  0  0
 26 30  2  0  0  0  0
 28 31  1  0  0  0  0
 28 32  1  0  0  0  0
 29 33  1  0  0  0  0
 10 11  1  0  0  0  0
 18 22  1  0  0  0  0
 25 29  2  0  0  0  0
 27 30  1  0  0  0  0
M  END
>  <MolRegNo>
491909

>  <m>
=

>  <Value>
28

>  <Unit>
nM

>  <Type>
Ki

>  <pValue>
7.55

>  <Ligand Efficiency>
0.31

>  <Binding Efficiency>
17.22

>  <Surface Efficiency>
11.31

>  <Assay Index>
383957

>  <Assay Category>


>  <Assay Organism>
Homo sapiens

>  <Target ID>
19

>  <Target Name>
Estrogen receptor alpha

>  <Target Organism>
Homo sapiens

>  <Target Description>
Target is a single protein chain

>  <Sequence Accession>
P03372

>  <Reference>
Bioorg Med Chem Lett 18 (18), 5075-5077 (2008)

>  <Pubmed ID>
18722117

>  <DOI>
10.1016/j.bmcl.2008.07.121

$$$$
491910
Actelion Java MolfileCreator 1.0

 34 37  0  0  0  0  0  0  0  0999 V2000
    0.0000   -0.0000   -0.0000 O   0  0  0  0  0  0  0  0  0  0  0  0
    0.0000   -1.4908   -0.0000 C   0  0  0  0  0  0  0  0  0  0  0  0
   -1.3119   -2.2421   -0.0000 O   0  0  0  0  0  0  0  0  0  0  0  0
    1.2999   -2.2182   -0.0000 C   0  0  0  0  0  0  0  0  0  0  0  0
    2.5880   -1.4431   -0.0000 C   0  0  0  0  0  0  0  0  0  0  0  0
    3.8879   -2.1705   -0.0000 C   0  0  0  0  0  0  0  0  0  0  0  0
    5.1759   -1.3953   -0.0000 C   0  0  0  0  0  0  0  0  0  0  0  0
    3.8879   -3.6732   -0.0000 C   0  0  0  0  0  0  0  0  0  0  0  0
    6.4759   -2.1348   -0.0000 C   0  0  0  0  0  0  0  0  0  0  0  0
    5.1878   -4.4007   -0.0000 C   0  0  0  0  0  0  0  0  0  0  0  0
    6.4639   -3.6255   -0.0000 C   0  0  0  0  0  0  0  0  0  0  0  0
    7.7639   -4.3649   -0.0000 O   0  0  0  0  0  0  0  0  0  0  0  0
    7.7639   -5.8557   -0.0000 C   0  0  0  0  0  0  0  0  0  0  0  0
    9.0638   -6.5832   -0.0000 C   0  0  0  0  0  0  0  0  0  0  0  0
    6.4520   -6.5951   -0.0000 C   0  0  0  0  0  0  0  0  0  0  0  0
   10.3518   -5.8080   -0.0000 C   0  0  0  0  0  0  0  0  0  0  0  0
    9.0638   -8.0859   -0.0000 C   0  0  0  0  0  0  0  0  0  0  0  0
    6.4401   -8.0978   -0.0000 C   0  0  0  0  0  0  0  0  0  0  0  0
    5.1401   -5.8318   -0.0000 C   0  0  0  0  0  0  0  0  0  0  0  0
   11.6398   -6.5474   -0.0000 C   0  0  0  0  0  0  0  0  0  0  0  0
   10.3280   -4.3053   -0.0000 C   0  0  0  0  0  0  0  0  0  0  0  0
    7.7519   -8.8253   -0.0000 C   0  0  0  0  0  0  0  0  0  0  0  0
   10.3637   -8.8253   -0.0000 C   0  0  0  0  0  0  0  0  0  0  0  0
    5.1282   -8.8491   -0.0000 C   0  0  0  0  0  0  0  0  0  0  0  0
    3.8283   -6.5713   -0.0000 C   0  0  0  0  0  0  0  0  0  0  0  0
   12.9278   -5.7722   -0.0000 C   0  0  0  0  0  0  0  0  0  0  0  0
   11.6041   -3.5301   -0.0000 C   0  0  0  0  0  0  0  0  0  0  0  0
   10.3637  -10.3160   -0.0000 C   0  0  0  0  0  0  0  0  0  0  0  0
    3.8163   -8.0859   -0.0000 C   0  0  0  0  0  0  0  0  0  0  0  0
   12.9040   -4.2576   -0.0000 C   0  0  0  0  0  0  0  0  0  0  0  0
   11.6637  -11.0555   -0.0000 C   0  0  0  0  0  0  0  0  0  0  0  0
    2.5045   -8.8253   -0.0000 O   0  0  0  0  0  0  0  0  0  0  0  0
   12.9517  -10.2803   -0.0000 C   0  0  0  0  0  0  0  0  0  0  0  0
   14.2516  -11.0197   -0.0000 C   0  0  0  0  0  0  0  0  0  0  0  0
  1  2  2  0  0  0  0
  2  3  1  0  0  0  0
  2  4  1  0  0  0  0
  4  5  2  0  0  0  0
  5  6  1  0  0  0  0
  6  7  2  0  0  0  0
  6  8  1  0  0  0  0
  7  9  1  0  0  0  0
  8 10  2  0  0  0  0
  9 11  2  0  0  0  0
 11 12  1  0  0  0  0
 12 13  1  0  0  0  0
 13 14  2  0  0  0  0
 13 15  1  0  0  0  0
 14 16  1  0  0  0  0
 14 17  1  0  0  0  0
 15 18  1  0  0  0  0
 15 19  2  0  0  0  0
 16 20  2  0  0  0  0
 16 21  1  0  0  0  0
 17 22  2  0  0  0  0
 17 23  1  0  0  0  0
 18 24  2  0  0  0  0
 19 25  1  0  0  0  0
 20 26  1  0  0  0  0
 21 27  2  0  0  0  0
 23 28  1  0  0  0  0
 24 29  1  0  0  0  0
 26 30  2  0  0  0  0
 28 31  1  0  0  0  0
 29 32  1  0  0  0  0
 31 33  1  0  0  0  0
 33 34  1  0  0  0  0
 10 11  1  0  0  0  0
 18 22  1  0  0  0  0
 25 29  2  0  0  0  0
 27 30  1  0  0  0  0
M  END
>  <MolRegNo>
491910

>  <m>
=

>  <Value>
2

>  <Unit>
nM

>  <Type>
Ki

>  <pValue>
8.7

>  <Ligand Efficiency>
0.35

>  <Binding Efficiency>
19.22

>  <Surface Efficiency>
13.03

>  <Assay Index>
383957

>  <Assay Category>


>  <Assay Organism>
Homo sapiens

>  <Target ID>
19

>  <Target Name>
Estrogen receptor alpha

>  <Target Organism>
Homo sapiens

>  <Target Description>
Target is a single protein chain

>  <Sequence Accession>
P03372

>  <Reference>
Bioorg Med Chem Lett 18 (18), 5075-5077 (2008)

>  <Pubmed ID>
18722117

>  <DOI>
10.1016/j.bmcl.2008.07.121

$$$$
491971
Actelion Java MolfileCreator 1.0

 37 40  0  0  0  0  0  0  0  0999 V2000
    0.0000   -0.0000   -0.0000 O   0  0  0  0  0  0  0  0  0  0  0  0
    0.0000   -1.4907   -0.0000 C   0  0  0  0  0  0  0  0  0  0  0  0
   -1.3118   -2.2420   -0.0000 O   0  0  0  0  0  0  0  0  0  0  0  0
    1.2999   -2.2182   -0.0000 C   0  0  0  0  0  0  0  0  0  0  0  0
    2.5879   -1.4430   -0.0000 C   0  0  0  0  0  0  0  0  0  0  0  0
    3.8878   -2.1705   -0.0000 C   0  0  0  0  0  0  0  0  0  0  0  0
    5.1757   -1.3953   -0.0000 C   0  0  0  0  0  0  0  0  0  0  0  0
    3.8878   -3.6731   -0.0000 C   0  0  0  0  0  0  0  0  0  0  0  0
    6.4756   -2.1347   -0.0000 C   0  0  0  0  0  0  0  0  0  0  0  0
    5.1876   -4.4006   -0.0000 C   0  0  0  0  0  0  0  0  0  0  0  0
    6.4637   -3.6254   -0.0000 C   0  0  0  0  0  0  0  0  0  0  0  0
    7.7636   -4.3648   -0.0000 O   0  0  0  0  0  0  0  0  0  0  0  0
    7.7636   -5.8555   -0.0000 C   0  0  0  0  0  0  0  0  0  0  0  0
    9.0635   -6.5829   -0.0000 C   0  0  0  0  0  0  0  0  0  0  0  0
    6.4518   -6.5949   -0.0000 C   0  0  0  0  0  0  0  0  0  0  0  0
   10.3514   -5.8078   -0.0000 C   0  0  0  0  0  0  0  0  0  0  0  0
    9.0635   -8.0856   -0.0000 C   0  0  0  0  0  0  0  0  0  0  0  0
    6.4398   -8.0975   -0.0000 C   0  0  0  0  0  0  0  0  0  0  0  0
    5.1399   -5.8316   -0.0000 C   0  0  0  0  0  0  0  0  0  0  0  0
   11.6394   -6.5472   -0.0000 C   0  0  0  0  0  0  0  0  0  0  0  0
   10.3276   -4.3052   -0.0000 C   0  0  0  0  0  0  0  0  0  0  0  0
    7.7517   -8.8250   -0.0000 C   0  0  0  0  0  0  0  0  0  0  0  0
   10.3634   -8.8250   -0.0000 C   0  0  0  0  0  0  0  0  0  0  0  0
    5.1280   -8.8488   -0.0000 C   0  0  0  0  0  0  0  0  0  0  0  0
    3.8281   -6.5710   -0.0000 C   0  0  0  0  0  0  0  0  0  0  0  0
   12.9274   -5.7720   -0.0000 C   0  0  0  0  0  0  0  0  0  0  0  0
   11.6036   -3.5300   -0.0000 C   0  0  0  0  0  0  0  0  0  0  0  0
   10.3514  -10.3157   -0.0000 C   0  0  0  0  0  0  0  0  0  0  0  0
    3.8162   -8.0856   -0.0000 C   0  0  0  0  0  0  0  0  0  0  0  0
   12.9035   -4.2574   -0.0000 C   0  0  0  0  0  0  0  0  0  0  0  0
   11.6513  -11.0551   -0.0000 C   0  0  0  0  0  0  0  0  0  0  0  0
    2.5044   -8.8250   -0.0000 O   0  0  0  0  0  0  0  0  0  0  0  0
   12.9393  -10.2799   -0.0000 C   0  0  0  0  0  0  0  0  0  0  0  0
   14.2392  -11.0193   -0.0000 C   0  0  0  0  0  0  0  0  0  0  0  0
   15.5272  -10.2441   -0.0000 C   0  0  0  0  0  0  0  0  0  0  0  0
   16.8271  -10.9835   -0.0000 C   0  0  0  0  0  0  0  0  0  0  0  0
   18.1150  -10.2083   -0.0000 C   0  0  0  0  0  0  0  0  0  0  0  0
  1  2  2  0  0  0  0
  2  3  1  0  0  0  0
  2  4  1  0  0  0  0
  4  5  2  0  0  0  0
  5  6  1  0  0  0  0
  6  7  2  0  0  0  0
  6  8  1  0  0  0  0
  7  9  1  0  0  0  0
  8 10  2  0  0  0  0
  9 11  2  0  0  0  0
 11 12  1  0  0  0  0
 12 13  1  0  0  0  0
 13 14  2  0  0  0  0
 13 15  1  0  0  0  0
 14 16  1  0  0  0  0
 14 17  1  0  0  0  0
 15 18  1  0  0  0  0
 15 19  2  0  0  0  0
 16 20  2  0  0  0  0
 16 21  1  0  0  0  0
 17 22  2  0  0  0  0
 17 23  1  0  0  0  0
 18 24  2  0  0  0  0
 19 25  1  0  0  0  0
 20 26  1  0  0  0  0
 21 27  2  0  0  0  0
 23 28  1  0  0  0  0
 24 29  1  0  0  0  0
 26 30  2  0  0  0  0
 28 31  1  0  0  0  0
 29 32  1  0  0  0  0
 31 33  1  0  0  0  0
 33 34  1  0  0  0  0
 34 35  1  0  0  0  0
 35 36  1  0  0  0  0
 36 37  1  0  0  0  0
 10 11  1  0  0  0  0
 18 22  1  0  0  0  0
 25 29  2  0  0  0  0
 27 30  1  0  0  0  0
M  END
>  <MolRegNo>
491971

>  <m>
=

>  <Value>
55

>  <Unit>
nM

>  <Type>
Ki

>  <pValue>
7.26

>  <Ligand Efficiency>
0.27

>  <Binding Efficiency>
14.68

>  <Surface Efficiency>
10.87

>  <Assay Index>
383957

>  <Assay Category>


>  <Assay Organism>
Homo sapiens

>  <Target ID>
19

>  <Target Name>
Estrogen receptor alpha

>  <Target Organism>
Homo sapiens

>  <Target Description>
Target is a single protein chain

>  <Sequence Accession>
P03372

>  <Reference>
Bioorg Med Chem Lett 18 (18), 5075-5077 (2008)

>  <Pubmed ID>
18722117

>  <DOI>
10.1016/j.bmcl.2008.07.121

$$$$
459345
Actelion Java MolfileCreator 1.0

 25 29  0  0  0  0  0  0  0  0999 V2000
    0.0000   -0.0000   -0.0000 S   0  0  0  0  0  0  0  0  0  0  0  0
    0.6082   -1.3516   -0.0000 C   0  0  0  0  0  0  0  0  0  0  0  0
    1.0982    1.0475   -0.0000 C   0  0  0  0  0  0  0  0  0  0  0  0
    2.0949   -1.1657   -0.0000 N   0  0  0  0  0  0  0  0  0  0  0  0
   -0.1521   -2.6525   -0.0000 N   0  0  0  0  0  0  0  0  0  0  0  0
    2.3990    0.3210   -0.0000 C   0  0  0  0  0  0  0  0  0  0  0  0
   -1.6726   -2.6525   -0.0000 C   0  0  0  0  0  0  0  0  0  0  0  0
   -2.4666   -1.3347   -0.0000 O   0  0  0  0  0  0  0  0  0  0  0  0
   -2.4328   -3.9533   -0.0000 C   0  0  0  0  0  0  0  0  0  0  0  0
   -2.4497   -5.3218   -0.0000 C   0  0  0  0  0  0  0  0  0  0  0  0
   -1.9598   -4.6798   -0.0000 C   0  0  0  0  0  0  0  0  0  0  0  0
   -3.7675   -3.1762   -0.0000 C   0  0  0  0  0  0  0  0  0  0  0  0
   -3.8182   -5.9638   -0.0000 C   0  0  0  0  0  0  0  0  0  0  0  0
   -0.9630   -6.1834   -0.0000 C   0  0  0  0  0  0  0  0  0  0  0  0
   -1.9767   -6.8085   -0.0000 C   0  0  0  0  0  0  0  0  0  0  0  0
   -3.8013   -7.3154   -0.0000 C   0  0  0  0  0  0  0  0  0  0  0  0
   -5.1191   -5.0515   -0.0000 C   0  0  0  0  0  0  0  0  0  0  0  0
   -0.9799   -7.6195   -0.0000 C   0  0  0  0  0  0  0  0  0  0  0  0
    0.2703   -5.4401   -0.0000 C   0  0  0  0  0  0  0  0  0  0  0  0
   -5.1360   -8.0587   -0.0000 C   0  0  0  0  0  0  0  0  0  0  0  0
   -6.4369   -5.7949   -0.0000 C   0  0  0  0  0  0  0  0  0  0  0  0
    0.2534   -8.3291   -0.0000 C   0  0  0  0  0  0  0  0  0  0  0  0
    1.5036   -6.1328   -0.0000 C   0  0  0  0  0  0  0  0  0  0  0  0
   -6.4538   -7.2816   -0.0000 C   0  0  0  0  0  0  0  0  0  0  0  0
    1.4867   -7.5857   -0.0000 C   0  0  0  0  0  0  0  0  0  0  0  0
  1  2  1  0  0  0  0
  1  3  1  0  0  0  0
  2  4  2  0  0  0  0
  2  5  1  0  0  0  0
  3  6  2  0  0  0  0
  5  7  1  0  0  0  0
  7  8  2  0  0  0  0
  7  9  1  0  0  0  0
  9 10  1  0  0  0  0
  9 11  1  0  0  0  0
  9 12  1  6  0  0  0
 10 13  1  0  0  0  0
 10 14  1  0  0  0  0
 11 15  1  0  0  0  0
 13 16  2  0  0  0  0
 13 17  1  0  0  0  0
 14 18  2  0  0  0  0
 14 19  1  0  0  0  0
 16 20  1  0  0  0  0
 17 21  2  0  0  0  0
 18 22  1  0  0  0  0
 19 23  2  0  0  0  0
 20 24  2  0  0  0  0
 22 25  2  0  0  0  0
  4  6  1  0  0  0  0
 15 16  1  0  0  0  0
 15 18  1  0  0  0  0
 21 24  1  0  0  0  0
 23 25  1  0  0  0  0
M  END
>  <MolRegNo>
459345

>  <m>
=

>  <Value>
15000

>  <Unit>
nM

>  <Type>
Ki

>  <pValue>
4.82

>  <Ligand Efficiency>
0.26

>  <Binding Efficiency>
13.92

>  <Surface Efficiency>
11.49

>  <Assay Index>
348823

>  <Assay Category>


>  <Assay Organism>


>  <Target ID>
19

>  <Target Name>
Estrogen receptor alpha

>  <Target Organism>
Homo sapiens

>  <Target Description>
Target is a single protein chain

>  <Sequence Accession>
P03372

>  <Reference>
Bioorg Med Chem Lett 19 (8), 2139-2143 (2009)

>  <Pubmed ID>
19321341

>  <DOI>
10.1016/j.bmcl.2009.03.006

$$$$
459348
Actelion Java MolfileCreator 1.0

 27 31  0  0  0  0  0  0  0  0999 V2000
    0.0000   -0.0000   -0.0000 S   0  0  0  0  0  0  0  0  0  0  0  0
    0.6085   -1.3523   -0.0000 C   0  0  0  0  0  0  0  0  0  0  0  0
    1.0988    1.0480   -0.0000 C   0  0  0  0  0  0  0  0  0  0  0  0
    2.0961   -1.1664   -0.0000 N   0  0  0  0  0  0  0  0  0  0  0  0
   -0.1521   -2.6539   -0.0000 N   0  0  0  0  0  0  0  0  0  0  0  0
    2.4004    0.3212   -0.0000 C   0  0  0  0  0  0  0  0  0  0  0  0
   -1.6735   -2.6539   -0.0000 C   0  0  0  0  0  0  0  0  0  0  0  0
   -2.4680   -1.3354   -0.0000 O   0  0  0  0  0  0  0  0  0  0  0  0
   -2.4342   -3.9555   -0.0000 C   0  0  0  0  0  0  0  0  0  0  0  0
   -2.4511   -5.3248   -0.0000 C   0  0  0  0  0  0  0  0  0  0  0  0
   -1.9609   -4.6824   -0.0000 C   0  0  0  0  0  0  0  0  0  0  0  0
   -3.7696   -3.1780   -0.0000 C   0  0  0  0  0  0  0  0  0  0  0  0
   -3.8203   -5.9671   -0.0000 C   0  0  0  0  0  0  0  0  0  0  0  0
   -0.9635   -6.1869   -0.0000 C   0  0  0  0  0  0  0  0  0  0  0  0
   -1.9778   -6.8123   -0.0000 C   0  0  0  0  0  0  0  0  0  0  0  0
   -3.8034   -7.3194   -0.0000 C   0  0  0  0  0  0  0  0  0  0  0  0
   -5.1219   -5.0543   -0.0000 C   0  0  0  0  0  0  0  0  0  0  0  0
   -0.9804   -7.6237   -0.0000 C   0  0  0  0  0  0  0  0  0  0  0  0
    0.2705   -5.4431   -0.0000 C   0  0  0  0  0  0  0  0  0  0  0  0
   -2.0116   -8.2999   -0.0000 C   0  0  0  0  0  0  0  0  0  0  0  0
   -5.1388   -8.0632   -0.0000 C   0  0  0  0  0  0  0  0  0  0  0  0
   -6.4404   -5.7981   -0.0000 C   0  0  0  0  0  0  0  0  0  0  0  0
    0.2536   -8.3337   -0.0000 C   0  0  0  0  0  0  0  0  0  0  0  0
    1.5045   -6.1362   -0.0000 C   0  0  0  0  0  0  0  0  0  0  0  0
   -2.0454   -9.7874   -0.0000 N   0  0  0  0  0  0  0  0  0  0  0  0
   -6.4573   -7.2856   -0.0000 C   0  0  0  0  0  0  0  0  0  0  0  0
    1.4876   -7.5899   -0.0000 C   0  0  0  0  0  0  0  0  0  0  0  0
  1  2  1  0  0  0  0
  1  3  1  0  0  0  0
  2  4  2  0  0  0  0
  2  5  1  0  0  0  0
  3  6  2  0  0  0  0
  5  7  1  0  0  0  0
  7  8  2  0  0  0  0
  7  9  1  0  0  0  0
  9 10  1  0  0  0  0
  9 11  1  0  0  0  0
  9 12  1  6  0  0  0
 10 13  1  0  0  0  0
 10 14  1  0  0  0  0
 11 15  1  0  0  0  0
 13 16  2  0  0  0  0
 13 17  1  0  0  0  0
 14 18  2  0  0  0  0
 14 19  1  0  0  0  0
 15 20  1  0  0  0  0
 16 21  1  0  0  0  0
 17 22  2  0  0  0  0
 18 23  1  0  0  0  0
 19 24  2  0  0  0  0
 20 25  3  0  0  0  0
 21 26  2  0  0  0  0
 23 27  2  0  0  0  0
  4  6  1  0  0  0  0
 15 16  1  0  0  0  0
 15 18  1  0  0  0  0
 22 26  1  0  0  0  0
 24 27  1  0  0  0  0
M  END
>  <MolRegNo>
459348

>  <m>
=

>  <Value>
26300

>  <Unit>
nM

>  <Type>
Ki

>  <pValue>
4.58

>  <Ligand Efficiency>
0.23

>  <Binding Efficiency>
12.33

>  <Surface Efficiency>
6.96

>  <Assay Index>
348823

>  <Assay Category>


>  <Assay Organism>


>  <Target ID>
19

>  <Target Name>
Estrogen receptor alpha

>  <Target Organism>
Homo sapiens

>  <Target Description>
Target is a single protein chain

>  <Sequence Accession>
P03372

>  <Reference>
Bioorg Med Chem Lett 19 (8), 2139-2143 (2009)

>  <Pubmed ID>
19321341

>  <DOI>
10.1016/j.bmcl.2009.03.006

$$$$
613670
Actelion Java MolfileCreator 1.0

 20 20  0  0  0  0  0  0  0  0999 V2000
    0.0000   -0.0000   -0.0000 N   0  0  0  0  0  0  0  0  0  0  0  0
   -0.0119   -1.5003   -0.0000 C   0  0  0  0  0  0  0  0  0  0  0  0
   -1.3098    0.7620   -0.0000 C   0  0  0  0  0  0  0  0  0  0  0  0
   -1.3336   -2.2385   -0.0000 N   0  0  0  0  0  0  0  0  0  0  0  0
    1.2740   -2.2385   -0.0000 N   0  0  0  0  0  0  0  0  0  0  0  0
   -1.3217    2.2742   -0.0000 N   0  0  0  0  0  0  0  0  0  0  0  0
   -2.6195    0.0238   -0.0000 C   0  0  0  0  0  0  0  0  0  0  0  0
   -2.6434   -1.4765   -0.0000 C   0  0  0  0  0  0  0  0  0  0  0  0
    2.5600   -1.4765   -0.0000 C   0  0  0  0  0  0  0  0  0  0  0  0
   -0.0357    3.0363   -0.0000 C   0  0  0  0  0  0  0  0  0  0  0  0
   -3.9531   -2.2147   -0.0000 C   0  0  0  0  0  0  0  0  0  0  0  0
    3.8460   -2.2147   -0.0000 C   0  0  0  0  0  0  0  0  0  0  0  0
    1.2502    2.2981   -0.0000 C   0  0  0  0  0  0  0  0  0  0  0  0
   -5.2629   -1.4527   -0.0000 C   0  0  0  0  0  0  0  0  0  0  0  0
    5.1319   -1.4527   -0.0000 C   0  0  0  0  0  0  0  0  0  0  0  0
    3.8341   -3.7031   -0.0000 C   0  0  0  0  0  0  0  0  0  0  0  0
    2.5362    3.0601   -0.0000 C   0  0  0  0  0  0  0  0  0  0  0  0
    1.2383    0.8097   -0.0000 C   0  0  0  0  0  0  0  0  0  0  0  0
   -6.5727   -2.1909   -0.0000 C   0  0  0  0  0  0  0  0  0  0  0  0
   -5.2748    0.0595   -0.0000 C   0  0  0  0  0  0  0  0  0  0  0  0
  1  2  2  0  0  0  0
  1  3  1  0  0  0  0
  2  4  1  0  0  0  0
  2  5  1  0  0  0  0
  3  6  1  0  0  0  0
  3  7  2  0  0  0  0
  4  8  2  0  0  0  0
  5  9  1  0  0  0  0
  6 10  1  0  0  0  0
  8 11  1  0  0  0  0
  9 12  1  0  0  0  0
 10 13  1  0  0  0  0
 11 14  1  0  0  0  0
 12 15  1  0  0  0  0
 12 16  1  0  0  0  0
 13 17  1  0  0  0  0
 13 18  1  0  0  0  0
 14 19  1  0  0  0  0
 14 20  1  0  0  0  0
  7  8  1  0  0  0  0
M  END
>  <MolRegNo>
613670

>  <m>
=

>  <Value>
29000

>  <Unit>
nM

>  <Type>
Ki

>  <pValue>
4.54

>  <Ligand Efficiency>
0.31

>  <Binding Efficiency>
16.3

>  <Surface Efficiency>
9.1

>  <Assay Index>
462034

>  <Assay Category>


>  <Assay Organism>


>  <Target ID>
19

>  <Target Name>
Estrogen receptor alpha

>  <Target Organism>
Homo sapiens

>  <Target Description>
Target is a single protein chain

>  <Sequence Accession>
P03372

>  <Reference>
Bioorg Med Chem Lett 20 (5), 1712-1717 (2010)

>  <Pubmed ID>
20144545

>  <DOI>
10.1016/j.bmcl.2010.01.079

$$$$
613671
Actelion Java MolfileCreator 1.0

 36 40  0  0  0  0  0  0  0  0999 V2000
    0.0000   -0.0000   -0.0000 O   0  0  0  0  0  0  0  0  0  0  0  0
   -1.3090    0.7616   -0.0000 C   0  0  0  0  0  0  0  0  0  0  0  0
   -1.3209    2.2848   -0.0000 N   0  0  0  0  0  0  0  0  0  0  0  0
   -2.6299    0.0238   -0.0000 C   0  0  0  0  0  0  0  0  0  0  0  0
   -2.6299    3.0464   -0.0000 C   0  0  0  0  0  0  0  0  0  0  0  0
   -0.0357    3.0464   -0.0000 C   0  0  0  0  0  0  0  0  0  0  0  0
   -2.6418   -1.4637   -0.0000 O   0  0  0  0  0  0  0  0  0  0  0  0
   -3.9389    0.7854   -0.0000 C   0  0  0  0  0  0  0  0  0  0  0  0
   -2.6418    4.5577   -0.0000 C   0  0  0  0  0  0  0  0  0  0  0  0
   -3.9389    2.3086   -0.0000 C   0  0  0  0  0  0  0  0  0  0  0  0
    1.2495    2.3086   -0.0000 C   0  0  0  0  0  0  0  0  0  0  0  0
   -1.3566    5.3192   -0.0000 C   0  0  0  0  0  0  0  0  0  0  0  0
   -3.9627    5.3073   -0.0000 C   0  0  0  0  0  0  0  0  0  0  0  0
   -5.2478    3.0702   -0.0000 C   0  0  0  0  0  0  0  0  0  0  0  0
    2.5228    3.0821   -0.0000 C   0  0  0  0  0  0  0  0  0  0  0  0
    1.2376    0.8211   -0.0000 C   0  0  0  0  0  0  0  0  0  0  0  0
   -1.3685    6.8305   -0.0000 C   0  0  0  0  0  0  0  0  0  0  0  0
   -3.9865    6.8186   -0.0000 C   0  0  0  0  0  0  0  0  0  0  0  0
   -6.5568    2.3324   -0.0000 C   0  0  0  0  0  0  0  0  0  0  0  0
    3.8080    2.3562   -0.0000 C   0  0  0  0  0  0  0  0  0  0  0  0
    2.5228    0.0833   -0.0000 C   0  0  0  0  0  0  0  0  0  0  0  0
   -2.6894    7.5921   -0.0000 N   0  0  0  0  0  0  0  0  0  0  0  0
   -0.0833    7.5921   -0.0000 C   0  0  0  0  0  0  0  0  0  0  0  0
   -7.8658    3.0940   -0.0000 C   0  0  0  0  0  0  0  0  0  0  0  0
   -6.5687    0.8449   -0.0000 C   0  0  0  0  0  0  0  0  0  0  0  0
    3.7961    0.8568   -0.0000 C   0  0  0  0  0  0  0  0  0  0  0  0
    5.0931    3.1297   -0.0000 C   0  0  0  0  0  0  0  0  0  0  0  0
    1.2019    6.8543   -0.0000 C   0  0  0  0  0  0  0  0  0  0  0  0
    5.0931    0.1190   -0.0000 C   0  0  0  0  0  0  0  0  0  0  0  0
    6.3902    2.4038   -0.0000 C   0  0  0  0  0  0  0  0  0  0  0  0
    1.1900    5.3668   -0.0000 C   0  0  0  0  0  0  0  0  0  0  0  0
    2.4752    7.6278   -0.0000 C   0  0  0  0  0  0  0  0  0  0  0  0
    6.3783    0.8925   -0.0000 C   0  0  0  0  0  0  0  0  0  0  0  0
    2.4752    4.6291   -0.0000 C   0  0  0  0  0  0  0  0  0  0  0  0
    3.7604    6.9019   -0.0000 C   0  0  0  0  0  0  0  0  0  0  0  0
    3.7604    5.3906   -0.0000 C   0  0  0  0  0  0  0  0  0  0  0  0
  1  2  2  0  0  0  0
  2  3  1  0  0  0  0
  2  4  1  0  0  0  0
  3  5  1  0  0  0  0
  3  6  1  0  0  0  0
  4  7  1  0  0  0  0
  4  8  2  0  0  0  0
  5  9  1  0  0  0  0
  5 10  2  0  0  0  0
  6 11  1  0  0  0  0
  9 12  2  0  0  0  0
  9 13  1  0  0  0  0
 10 14  1  0  0  0  0
 11 15  2  0  0  0  0
 11 16  1  0  0  0  0
 12 17  1  0  0  0  0
 13 18  2  0  0  0  0
 14 19  1  0  0  0  0
 15 20  1  0  0  0  0
 16 21  2  0  0  0  0
 17 22  2  0  0  0  0
 17 23  1  0  0  0  0
 19 24  1  0  0  0  0
 19 25  1  0  0  0  0
 20 26  1  0  0  0  0
 20 27  2  0  0  0  0
 23 28  1  0  0  0  0
 26 29  2  0  0  0  0
 27 30  1  0  0  0  0
 28 31  2  0  0  0  0
 28 32  1  0  0  0  0
 29 33  1  0  0  0  0
 31 34  1  0  0  0  0
 32 35  2  0  0  0  0
 34 36  2  0  0  0  0
  8 10  1  0  0  0  0
 18 22  1  0  0  0  0
 21 26  1  0  0  0  0
 30 33  2  0  0  0  0
 35 36  1  0  0  0  0
M  END
>  <MolRegNo>
613671

>  <m>
=

>  <Value>
4200

>  <Unit>
nM

>  <Type>
Ki

>  <pValue>
5.38

>  <Ligand Efficiency>
0.2

>  <Binding Efficiency>
11.33

>  <Surface Efficiency>
9.75

>  <Assay Index>
462034

>  <Assay Category>


>  <Assay Organism>


>  <Target ID>
19

>  <Target Name>
Estrogen receptor alpha

>  <Target Organism>
Homo sapiens

>  <Target Description>
Target is a single protein chain

>  <Sequence Accession>
P03372

>  <Reference>
Bioorg Med Chem Lett 20 (5), 1712-1717 (2010)

>  <Pubmed ID>
20144545

>  <DOI>
10.1016/j.bmcl.2010.01.079

$$$$
685630
Actelion Java MolfileCreator 1.0

 30 31  0  0  0  0  0  0  0  0999 V2000
    0.0000   -0.0000   -0.0000 I   0  0  0  0  0  0  0  0  0  0  0  0
   -3.9019   -0.9517   -0.0000 O   0  0  0  0  0  0  0  0  0  0  0  0
   -5.2104   -1.7011   -0.0000 C   0  0  0  0  0  0  0  0  0  0  0  0
   -2.6052   -1.6892   -0.0000 C   0  0  0  0  0  0  0  0  0  0  0  0
   -5.2223   -3.1881   -0.0000 C   0  0  0  0  0  0  0  0  0  0  0  0
   -6.5309   -0.9398   -0.0000 C   0  0  0  0  0  0  0  0  0  0  0  0
   -1.3205   -0.9160   -0.0000 C   0  0  0  0  0  0  0  0  0  0  0  0
   -6.5309   -3.9257   -0.0000 C   0  0  0  0  0  0  0  0  0  0  0  0
   -7.8276   -1.6892   -0.0000 C   0  0  0  0  0  0  0  0  0  0  0  0
   -0.0238   -1.6535   -0.0000 N   0  0  0  0  0  0  0  0  0  0  0  0
   -7.8395   -3.1643   -0.0000 C   0  0  0  0  0  0  0  0  0  0  0  0
   -0.7970   -2.9383   -0.0000 C   0  0  0  0  0  0  0  0  0  0  0  0
    0.7019   -2.9383   -0.0000 C   0  0  0  0  0  0  0  0  0  0  0  0
    1.2610   -0.8803   -0.0000 C   0  0  0  0  0  0  0  0  0  0  0  0
   -9.1480   -3.9138   -0.0000 C   0  0  0  0  0  0  0  0  0  0  0  0
  -10.4685   -3.1524   -0.0000 C   0  0  0  0  0  0  0  0  0  0  0  0
   -9.1599   -5.4008   -0.0000 C   0  0  0  0  0  0  0  0  0  0  0  0
  -10.4804   -1.6298   -0.0000 C   0  0  0  0  0  0  0  0  0  0  0  0
  -11.7889   -3.8900   -0.0000 C   0  0  0  0  0  0  0  0  0  0  0  0
   -7.8633   -6.1383   -0.0000 C   0  0  0  0  0  0  0  0  0  0  0  0
  -10.4685   -6.1383   -0.0000 C   0  0  0  0  0  0  0  0  0  0  0  0
  -11.8008   -0.8684   -0.0000 C   0  0  0  0  0  0  0  0  0  0  0  0
  -13.0975   -3.1286   -0.0000 C   0  0  0  0  0  0  0  0  0  0  0  0
   -7.8871   -7.6253   -0.0000 C   0  0  0  0  0  0  0  0  0  0  0  0
   -6.5904   -5.3651   -0.0000 C   0  0  0  0  0  0  0  0  0  0  0  0
  -10.4804   -7.6253   -0.0000 C   0  0  0  0  0  0  0  0  0  0  0  0
  -13.1094   -1.6179   -0.0000 C   0  0  0  0  0  0  0  0  0  0  0  0
   -6.5904   -8.3629   -0.0000 C   0  0  0  0  0  0  0  0  0  0  0  0
   -5.3056   -6.1026   -0.0000 C   0  0  0  0  0  0  0  0  0  0  0  0
   -5.3056   -7.6015   -0.0000 C   0  0  0  0  0  0  0  0  0  0  0  0
  2  3  1  0  0  0  0
  2  4  1  0  0  0  0
  3  5  2  0  0  0  0
  3  6  1  0  0  0  0
  4  7  1  0  0  0  0
  5  8  1  0  0  0  0
  6  9  2  0  0  0  0
  7 10  1  0  0  0  0
  8 11  2  0  0  0  0
 10 12  1  0  0  0  0
 10 13  1  0  0  0  0
 10 14  1  0  0  0  0
 11 15  1  0  0  0  0
 15 16  1  0  0  0  0
 15 17  2  0  0  0  0
 16 18  2  0  0  0  0
 16 19  1  0  0  0  0
 17 20  1  0  0  0  0
 17 21  1  0  0  0  0
 18 22  1  0  0  0  0
 19 23  2  0  0  0  0
 20 24  2  0  0  0  0
 20 25  1  0  0  0  0
 21 26  1  0  0  0  0
 22 27  2  0  0  0  0
 24 28  1  0  0  0  0
 25 29  2  0  0  0  0
 28 30  2  0  0  0  0
  9 11  1  0  0  0  0
 23 27  1  0  0  0  0
 29 30  1  0  0  0  0
M  CHG  2   1  -1  10   1
M  END
>  <MolRegNo>
685630

>  <m>
=

>  <Value>
46.29

>  <Unit>
nM

>  <Type>
Ki

>  <pValue>
7.33

>  <Ligand Efficiency>
0.35

>  <Binding Efficiency>
18.97

>  <Surface Efficiency>
79.46

>  <Assay Index>
492618

>  <Assay Category>


>  <Assay Organism>
Homo sapiens

>  <Target ID>
19

>  <Target Name>
Estrogen receptor alpha

>  <Target Organism>
Homo sapiens

>  <Target Description>
Target is a single protein chain

>  <Sequence Accession>
P03372

>  <Reference>
Bioorg Med Chem 18 (15), 5593-5601 (2010)

>  <Pubmed ID>
20621492

>  <DOI>
10.1016/j.bmc.2010.06.039

$$$$
685631
Actelion Java MolfileCreator 1.0

 31 32  0  0  0  0  0  0  0  0999 V2000
    0.0000   -0.0000   -0.0000 Br  0  0  0  0  0  0  0  0  0  0  0  0
   -3.9971   -0.9517   -0.0000 O   0  0  0  0  0  0  0  0  0  0  0  0
   -5.3057   -1.7012   -0.0000 C   0  0  0  0  0  0  0  0  0  0  0  0
   -2.7005   -1.6893   -0.0000 C   0  0  0  0  0  0  0  0  0  0  0  0
   -5.3176   -3.1882   -0.0000 C   0  0  0  0  0  0  0  0  0  0  0  0
   -6.6262   -0.9398   -0.0000 C   0  0  0  0  0  0  0  0  0  0  0  0
   -1.4157   -0.9160   -0.0000 C   0  0  0  0  0  0  0  0  0  0  0  0
   -6.6262   -3.9258   -0.0000 C   0  0  0  0  0  0  0  0  0  0  0  0
   -7.9229   -1.6893   -0.0000 C   0  0  0  0  0  0  0  0  0  0  0  0
   -0.1190   -1.6536   -0.0000 N   0  0  0  0  0  0  0  0  0  0  0  0
   -7.9348   -3.1644   -0.0000 C   0  0  0  0  0  0  0  0  0  0  0  0
    0.6186   -2.9384   -0.0000 C   0  0  0  0  0  0  0  0  0  0  0  0
    1.1658   -0.8803   -0.0000 C   0  0  0  0  0  0  0  0  0  0  0  0
   -0.8922   -2.9384   -0.0000 C   0  0  0  0  0  0  0  0  0  0  0  0
   -9.2434   -3.9139   -0.0000 C   0  0  0  0  0  0  0  0  0  0  0  0
    2.1056   -2.9265   -0.0000 C   0  0  0  0  0  0  0  0  0  0  0  0
  -10.5639   -3.1525   -0.0000 C   0  0  0  0  0  0  0  0  0  0  0  0
   -9.2553   -5.4009   -0.0000 C   0  0  0  0  0  0  0  0  0  0  0  0
  -11.8844   -3.8901   -0.0000 C   0  0  0  0  0  0  0  0  0  0  0  0
  -10.5758   -1.6298   -0.0000 C   0  0  0  0  0  0  0  0  0  0  0  0
   -7.9586   -6.1385   -0.0000 C   0  0  0  0  0  0  0  0  0  0  0  0
  -10.5639   -6.1385   -0.0000 C   0  0  0  0  0  0  0  0  0  0  0  0
  -13.1930   -3.1287   -0.0000 C   0  0  0  0  0  0  0  0  0  0  0  0
  -11.8963   -0.8684   -0.0000 C   0  0  0  0  0  0  0  0  0  0  0  0
   -7.9824   -7.6255   -0.0000 C   0  0  0  0  0  0  0  0  0  0  0  0
   -6.6857   -5.3652   -0.0000 C   0  0  0  0  0  0  0  0  0  0  0  0
  -10.5758   -7.6255   -0.0000 C   0  0  0  0  0  0  0  0  0  0  0  0
  -13.2049   -1.6060   -0.0000 C   0  0  0  0  0  0  0  0  0  0  0  0
   -6.6857   -8.3631   -0.0000 C   0  0  0  0  0  0  0  0  0  0  0  0
   -5.4009   -6.1028   -0.0000 C   0  0  0  0  0  0  0  0  0  0  0  0
   -5.4009   -7.6017   -0.0000 C   0  0  0  0  0  0  0  0  0  0  0  0
  2  3  1  0  0  0  0
  2  4  1  0  0  0  0
  3  5  2  0  0  0  0
  3  6  1  0  0  0  0
  4  7  1  0  0  0  0
  5  8  1  0  0  0  0
  6  9  2  0  0  0  0
  7 10  1  0  0  0  0
  8 11  2  0  0  0  0
 10 12  1  0  0  0  0
 10 13  1  0  0  0  0
 10 14  1  0  0  0  0
 11 15  1  0  0  0  0
 12 16  1  0  0  0  0
 15 17  1  0  0  0  0
 15 18  2  0  0  0  0
 17 19  2  0  0  0  0
 17 20  1  0  0  0  0
 18 21  1  0  0  0  0
 18 22  1  0  0  0  0
 19 23  1  0  0  0  0
 20 24  2  0  0  0  0
 21 25  2  0  0  0  0
 21 26  1  0  0  0  0
 22 27  1  0  0  0  0
 23 28  2  0  0  0  0
 25 29  1  0  0  0  0
 26 30  2  0  0  0  0
 29 31  2  0  0  0  0
  9 11  1  0  0  0  0
 24 28  1  0  0  0  0
 30 31  1  0  0  0  0
M  CHG  2   1  -1  10   1
M  END
>  <MolRegNo>
685631

>  <m>
=

>  <Value>
13.66

>  <Unit>
nM

>  <Type>
Ki

>  <pValue>
7.87

>  <Ligand Efficiency>
0.36

>  <Binding Efficiency>
19.63

>  <Surface Efficiency>
85.21

>  <Assay Index>
492618

>  <Assay Category>


>  <Assay Organism>
Homo sapiens

>  <Target ID>
19

>  <Target Name>
Estrogen receptor alpha

>  <Target Organism>
Homo sapiens

>  <Target Description>
Target is a single protein chain

>  <Sequence Accession>
P03372

>  <Reference>
Bioorg Med Chem 18 (15), 5593-5601 (2010)

>  <Pubmed ID>
20621492

>  <DOI>
10.1016/j.bmc.2010.06.039

$$$$
685632
Actelion Java MolfileCreator 1.0

 32 33  0  0  0  0  0  0  0  0999 V2000
    0.0000   -0.0000   -0.0000 Br  0  0  0  0  0  0  0  0  0  0  0  0
   -3.7109   -1.1418   -0.0000 O   0  0  0  0  0  0  0  0  0  0  0  0
   -5.0192   -1.8911   -0.0000 C   0  0  0  0  0  0  0  0  0  0  0  0
   -2.4145   -1.8792   -0.0000 C   0  0  0  0  0  0  0  0  0  0  0  0
   -5.0311   -3.3779   -0.0000 C   0  0  0  0  0  0  0  0  0  0  0  0
   -6.3395   -1.1299   -0.0000 C   0  0  0  0  0  0  0  0  0  0  0  0
   -1.1299   -1.1061   -0.0000 C   0  0  0  0  0  0  0  0  0  0  0  0
   -6.3395   -4.1153   -0.0000 C   0  0  0  0  0  0  0  0  0  0  0  0
   -7.6359   -1.8792   -0.0000 C   0  0  0  0  0  0  0  0  0  0  0  0
    0.1665   -1.8436   -0.0000 N   0  0  0  0  0  0  0  0  0  0  0  0
   -7.6478   -3.3541   -0.0000 C   0  0  0  0  0  0  0  0  0  0  0  0
    1.4511   -1.0705   -0.0000 C   0  0  0  0  0  0  0  0  0  0  0  0
    0.8920   -3.1281   -0.0000 C   0  0  0  0  0  0  0  0  0  0  0  0
   -0.6066   -3.1281   -0.0000 C   0  0  0  0  0  0  0  0  0  0  0  0
   -8.9561   -4.1034   -0.0000 C   0  0  0  0  0  0  0  0  0  0  0  0
    1.4392    0.4401   -0.0000 C   0  0  0  0  0  0  0  0  0  0  0  0
    2.7475   -1.8079   -0.0000 C   0  0  0  0  0  0  0  0  0  0  0  0
  -10.2764   -3.3422   -0.0000 C   0  0  0  0  0  0  0  0  0  0  0  0
   -8.9680   -5.5901   -0.0000 C   0  0  0  0  0  0  0  0  0  0  0  0
  -11.5966   -4.0796   -0.0000 C   0  0  0  0  0  0  0  0  0  0  0  0
  -10.2883   -1.8198   -0.0000 C   0  0  0  0  0  0  0  0  0  0  0  0
   -7.6716   -6.3276   -0.0000 C   0  0  0  0  0  0  0  0  0  0  0  0
  -10.2764   -6.3276   -0.0000 C   0  0  0  0  0  0  0  0  0  0  0  0
  -12.9049   -3.3184   -0.0000 C   0  0  0  0  0  0  0  0  0  0  0  0
  -11.6085   -1.0586   -0.0000 C   0  0  0  0  0  0  0  0  0  0  0  0
   -6.3989   -5.5545   -0.0000 C   0  0  0  0  0  0  0  0  0  0  0  0
   -7.6954   -7.8143   -0.0000 C   0  0  0  0  0  0  0  0  0  0  0  0
  -10.2883   -7.8143   -0.0000 C   0  0  0  0  0  0  0  0  0  0  0  0
  -12.9168   -1.7960   -0.0000 C   0  0  0  0  0  0  0  0  0  0  0  0
   -5.1144   -6.2919   -0.0000 C   0  0  0  0  0  0  0  0  0  0  0  0
   -6.3989   -8.5517   -0.0000 C   0  0  0  0  0  0  0  0  0  0  0  0
   -5.1144   -7.7905   -0.0000 C   0  0  0  0  0  0  0  0  0  0  0  0
  2  3  1  0  0  0  0
  2  4  1  0  0  0  0
  3  5  2  0  0  0  0
  3  6  1  0  0  0  0
  4  7  1  0  0  0  0
  5  8  1  0  0  0  0
  6  9  2  0  0  0  0
  7 10  1  0  0  0  0
  8 11  2  0  0  0  0
 10 12  1  0  0  0  0
 10 13  1  0  0  0  0
 10 14  1  0  0  0  0
 11 15  1  0  0  0  0
 12 16  1  0  0  0  0
 12 17  1  0  0  0  0
 15 18  1  0  0  0  0
 15 19  2  0  0  0  0
 18 20  2  0  0  0  0
 18 21  1  0  0  0  0
 19 22  1  0  0  0  0
 19 23  1  0  0  0  0
 20 24  1  0  0  0  0
 21 25  2  0  0  0  0
 22 26  2  0  0  0  0
 22 27  1  0  0  0  0
 23 28  1  0  0  0  0
 24 29  2  0  0  0  0
 26 30  1  0  0  0  0
 27 31  2  0  0  0  0
 30 32  2  0  0  0  0
  9 11  1  0  0  0  0
 25 29  1  0  0  0  0
 31 32  1  0  0  0  0
M  CHG  2   1  -1  10   1
M  END
>  <MolRegNo>
685632

>  <m>
=

>  <Value>
25.43

>  <Unit>
nM

>  <Type>
Ki

>  <pValue>
7.59

>  <Ligand Efficiency>
0.33

>  <Binding Efficiency>
18.32

>  <Surface Efficiency>
82.28

>  <Assay Index>
492618

>  <Assay Category>


>  <Assay Organism>
Homo sapiens

>  <Target ID>
19

>  <Target Name>
Estrogen receptor alpha

>  <Target Organism>
Homo sapiens

>  <Target Description>
Target is a single protein chain

>  <Sequence Accession>
P03372

>  <Reference>
Bioorg Med Chem 18 (15), 5593-5601 (2010)

>  <Pubmed ID>
20621492

>  <DOI>
10.1016/j.bmc.2010.06.039

$$$$
685633
Actelion Java MolfileCreator 1.0

 33 34  0  0  0  0  0  0  0  0999 V2000
    0.0000   -0.0000   -0.0000 Br  0  0  0  0  0  0  0  0  0  0  0  0
   -3.9036   -0.9521   -0.0000 O   0  0  0  0  0  0  0  0  0  0  0  0
   -5.2127   -1.7019   -0.0000 C   0  0  0  0  0  0  0  0  0  0  0  0
   -2.6064   -1.6900   -0.0000 C   0  0  0  0  0  0  0  0  0  0  0  0
   -5.2246   -3.1895   -0.0000 C   0  0  0  0  0  0  0  0  0  0  0  0
   -6.5338   -0.9402   -0.0000 C   0  0  0  0  0  0  0  0  0  0  0  0
   -1.3210   -0.9164   -0.0000 C   0  0  0  0  0  0  0  0  0  0  0  0
   -6.5338   -3.9274   -0.0000 C   0  0  0  0  0  0  0  0  0  0  0  0
   -7.8310   -1.6900   -0.0000 C   0  0  0  0  0  0  0  0  0  0  0  0
   -0.0238   -1.6543   -0.0000 N   0  0  0  0  0  0  0  0  0  0  0  0
   -7.8429   -3.1657   -0.0000 C   0  0  0  0  0  0  0  0  0  0  0  0
    0.7141   -2.9396   -0.0000 C   0  0  0  0  0  0  0  0  0  0  0  0
    1.2615   -0.8807   -0.0000 C   0  0  0  0  0  0  0  0  0  0  0  0
   -0.7974   -2.9396   -0.0000 C   0  0  0  0  0  0  0  0  0  0  0  0
   -9.1520   -3.9155   -0.0000 C   0  0  0  0  0  0  0  0  0  0  0  0
    2.2017   -2.9277   -0.0000 C   0  0  0  0  0  0  0  0  0  0  0  0
  -10.4731   -3.1538   -0.0000 C   0  0  0  0  0  0  0  0  0  0  0  0
   -9.1639   -5.4031   -0.0000 C   0  0  0  0  0  0  0  0  0  0  0  0
    2.9396   -4.2249   -0.0000 C   0  0  0  0  0  0  0  0  0  0  0  0
  -11.7941   -3.8917   -0.0000 C   0  0  0  0  0  0  0  0  0  0  0  0
  -10.4850   -1.6305   -0.0000 C   0  0  0  0  0  0  0  0  0  0  0  0
   -7.8667   -6.1410   -0.0000 C   0  0  0  0  0  0  0  0  0  0  0  0
  -10.4731   -6.1410   -0.0000 C   0  0  0  0  0  0  0  0  0  0  0  0
    4.4272   -4.2249   -0.0000 C   0  0  0  0  0  0  0  0  0  0  0  0
  -13.1032   -3.1300   -0.0000 C   0  0  0  0  0  0  0  0  0  0  0  0
  -11.8060   -0.8688   -0.0000 C   0  0  0  0  0  0  0  0  0  0  0  0
   -7.8905   -7.6287   -0.0000 C   0  0  0  0  0  0  0  0  0  0  0  0
   -6.5933   -5.3674   -0.0000 C   0  0  0  0  0  0  0  0  0  0  0  0
  -10.4850   -7.6287   -0.0000 C   0  0  0  0  0  0  0  0  0  0  0  0
  -13.1151   -1.6067   -0.0000 C   0  0  0  0  0  0  0  0  0  0  0  0
   -6.5933   -8.3665   -0.0000 C   0  0  0  0  0  0  0  0  0  0  0  0
   -5.3079   -6.1053   -0.0000 C   0  0  0  0  0  0  0  0  0  0  0  0
   -5.3079   -7.6049   -0.0000 C   0  0  0  0  0  0  0  0  0  0  0  0
  2  3  1  0  0  0  0
  2  4  1  0  0  0  0
  3  5  2  0  0  0  0
  3  6  1  0  0  0  0
  4  7  1  0  0  0  0
  5  8  1  0  0  0  0
  6  9  2  0  0  0  0
  7 10  1  0  0  0  0
  8 11  2  0  0  0  0
 10 12  1  0  0  0  0
 10 13  1  0  0  0  0
 10 14  1  0  0  0  0
 11 15  1  0  0  0  0
 12 16  1  0  0  0  0
 15 17  1  0  0  0  0
 15 18  2  0  0  0  0
 16 19  1  0  0  0  0
 17 20  2  0  0  0  0
 17 21  1  0  0  0  0
 18 22  1  0  0  0  0
 18 23  1  0  0  0  0
 19 24  1  0  0  0  0
 20 25  1  0  0  0  0
 21 26  2  0  0  0  0
 22 27  2  0  0  0  0
 22 28  1  0  0  0  0
 23 29  1  0  0  0  0
 25 30  2  0  0  0  0
 27 31  1  0  0  0  0
 28 32  2  0  0  0  0
 31 33  2  0  0  0  0
  9 11  1  0  0  0  0
 26 30  1  0  0  0  0
 32 33  1  0  0  0  0
M  CHG  2   1  -1  10   1
M  END
>  <MolRegNo>
685633

>  <m>
=

>  <Value>
13.01

>  <Unit>
nM

>  <Type>
Ki

>  <pValue>
7.89

>  <Ligand Efficiency>
0.34

>  <Binding Efficiency>
18.4

>  <Surface Efficiency>
85.44

>  <Assay Index>
492618

>  <Assay Category>


>  <Assay Organism>
Homo sapiens

>  <Target ID>
19

>  <Target Name>
Estrogen receptor alpha

>  <Target Organism>
Homo sapiens

>  <Target Description>
Target is a single protein chain

>  <Sequence Accession>
P03372

>  <Reference>
Bioorg Med Chem 18 (15), 5593-5601 (2010)

>  <Pubmed ID>
20621492

>  <DOI>
10.1016/j.bmc.2010.06.039

$$$$
1162054
Actelion Java MolfileCreator 1.0

 26 29  0  0  0  0  0  0  0  0999 V2000
    0.0000   -0.0000   -0.0000 S   0  0  0  0  0  0  0  0  0  0  0  0
   -0.1670   -1.4910   -0.0000 C   0  0  0  0  0  0  0  0  0  0  0  0
    1.4552    0.3340   -0.0000 C   0  0  0  0  0  0  0  0  0  0  0  0
    1.1928   -2.0755   -0.0000 N   0  0  0  0  0  0  0  0  0  0  0  0
   -1.4791   -2.2306   -0.0000 N   0  0  0  0  0  0  0  0  0  0  0  0
    2.1948   -0.9543   -0.0000 C   0  0  0  0  0  0  0  0  0  0  0  0
   -2.7912   -1.4672   -0.0000 C   0  0  0  0  0  0  0  0  0  0  0  0
   -2.8031    0.0477   -0.0000 O   0  0  0  0  0  0  0  0  0  0  0  0
   -4.1033   -2.2067   -0.0000 C   0  0  0  0  0  0  0  0  0  0  0  0
   -4.1153   -3.6978   -0.0000 C   0  0  0  0  0  0  0  0  0  0  0  0
   -4.5089   -0.7396   -0.0000 C   0  0  0  0  0  0  0  0  0  0  0  0
   -5.5705   -2.5765   -0.0000 C   0  0  0  0  0  0  0  0  0  0  0  0
   -5.4274   -4.4373   -0.0000 C   0  0  0  0  0  0  0  0  0  0  0  0
   -2.8270   -4.4373   -0.0000 C   0  0  0  0  0  0  0  0  0  0  0  0
   -5.4393   -5.9403   -0.0000 C   0  0  0  0  0  0  0  0  0  0  0  0
   -6.7395   -3.6858   -0.0000 C   0  0  0  0  0  0  0  0  0  0  0  0
   -2.8389   -5.9403   -0.0000 C   0  0  0  0  0  0  0  0  0  0  0  0
   -1.5507   -3.6620   -0.0000 C   0  0  0  0  0  0  0  0  0  0  0  0
   -4.1510   -6.6798   -0.0000 O   0  0  0  0  0  0  0  0  0  0  0  0
   -6.7514   -6.6798   -0.0000 C   0  0  0  0  0  0  0  0  0  0  0  0
   -8.0516   -4.4254   -0.0000 C   0  0  0  0  0  0  0  0  0  0  0  0
   -1.5626   -6.6560   -0.0000 C   0  0  0  0  0  0  0  0  0  0  0  0
   -0.2624   -4.3896   -0.0000 C   0  0  0  0  0  0  0  0  0  0  0  0
   -8.0635   -5.9164   -0.0000 C   0  0  0  0  0  0  0  0  0  0  0  0
   -0.2744   -5.8926   -0.0000 C   0  0  0  0  0  0  0  0  0  0  0  0
   -9.3756   -6.6560   -0.0000 O   0  0  0  0  0  0  0  0  0  0  0  0
  1  2  1  0  0  0  0
  1  3  1  0  0  0  0
  2  4  2  0  0  0  0
  2  5  1  0  0  0  0
  3  6  2  0  0  0  0
  5  7  1  0  0  0  0
  7  8  2  0  0  0  0
  7  9  1  0  0  0  0
 10  9  1  1  0  0  0
  9 11  1  0  0  0  0
  9 12  1  0  0  0  0
 10 13  1  0  0  0  0
 10 14  1  0  0  0  0
 13 15  2  0  0  0  0
 13 16  1  0  0  0  0
 14 17  2  0  0  0  0
 14 18  1  0  0  0  0
 15 19  1  0  0  0  0
 15 20  1  0  0  0  0
 16 21  2  0  0  0  0
 17 22  1  0  0  0  0
 18 23  2  0  0  0  0
 20 24  2  0  0  0  0
 22 25  2  0  0  0  0
 24 26  1  0  0  0  0
  4  6  1  0  0  0  0
 17 19  1  0  0  0  0
 21 24  1  0  0  0  0
 23 25  1  0  0  0  0
M  END
>  <MolRegNo>
1162054

>  <m>
=

>  <Value>
2300

>  <Unit>
nM

>  <Type>
Ki

>  <pValue>
5.64

>  <Ligand Efficiency>
0.3

>  <Binding Efficiency>
15.39

>  <Surface Efficiency>
7.89

>  <Assay Index>
597434

>  <Assay Category>


>  <Assay Organism>


>  <Target ID>
19

>  <Target Name>
Estrogen receptor alpha

>  <Target Organism>
Homo sapiens

>  <Target Description>
Target is a single protein chain

>  <Sequence Accession>
P03372

>  <Reference>
J Med Chem 53 (23), 8241-8251 (2010)

>  <Pubmed ID>
21073190

>  <DOI>
10.1021/jm100957a

$$$$
1162055
Actelion Java MolfileCreator 1.0

 26 29  0  0  0  0  0  0  0  0999 V2000
    0.0000   -0.0000   -0.0000 S   0  0  0  0  0  0  0  0  0  0  0  0
   -0.1670   -1.4910   -0.0000 C   0  0  0  0  0  0  0  0  0  0  0  0
    1.4552    0.3340   -0.0000 C   0  0  0  0  0  0  0  0  0  0  0  0
    1.1928   -2.0755   -0.0000 N   0  0  0  0  0  0  0  0  0  0  0  0
   -1.4791   -2.2306   -0.0000 N   0  0  0  0  0  0  0  0  0  0  0  0
    2.1948   -0.9543   -0.0000 N   0  0  0  0  0  0  0  0  0  0  0  0
   -2.7912   -1.4672   -0.0000 C   0  0  0  0  0  0  0  0  0  0  0  0
   -2.8031    0.0477   -0.0000 O   0  0  0  0  0  0  0  0  0  0  0  0
   -4.1033   -2.2067   -0.0000 C   0  0  0  0  0  0  0  0  0  0  0  0
   -4.1153   -3.6978   -0.0000 C   0  0  0  0  0  0  0  0  0  0  0  0
   -4.5089   -0.7396   -0.0000 C   0  0  0  0  0  0  0  0  0  0  0  0
   -5.5705   -2.5765   -0.0000 C   0  0  0  0  0  0  0  0  0  0  0  0
   -5.4274   -4.4373   -0.0000 C   0  0  0  0  0  0  0  0  0  0  0  0
   -2.8270   -4.4373   -0.0000 C   0  0  0  0  0  0  0  0  0  0  0  0
   -5.4393   -5.9403   -0.0000 C   0  0  0  0  0  0  0  0  0  0  0  0
   -6.7395   -3.6858   -0.0000 C   0  0  0  0  0  0  0  0  0  0  0  0
   -2.8389   -5.9403   -0.0000 C   0  0  0  0  0  0  0  0  0  0  0  0
   -1.5507   -3.6620   -0.0000 C   0  0  0  0  0  0  0  0  0  0  0  0
   -4.1510   -6.6798   -0.0000 O   0  0  0  0  0  0  0  0  0  0  0  0
   -6.7514   -6.6798   -0.0000 C   0  0  0  0  0  0  0  0  0  0  0  0
   -8.0516   -4.4254   -0.0000 C   0  0  0  0  0  0  0  0  0  0  0  0
   -1.5626   -6.6560   -0.0000 C   0  0  0  0  0  0  0  0  0  0  0  0
   -0.2624   -4.3896   -0.0000 C   0  0  0  0  0  0  0  0  0  0  0  0
   -8.0635   -5.9164   -0.0000 C   0  0  0  0  0  0  0  0  0  0  0  0
   -0.2744   -5.8926   -0.0000 C   0  0  0  0  0  0  0  0  0  0  0  0
   -9.3756   -6.6560   -0.0000 O   0  0  0  0  0  0  0  0  0  0  0  0
  1  2  1  0  0  0  0
  1  3  1  0  0  0  0
  2  4  2  0  0  0  0
  2  5  1  0  0  0  0
  3  6  2  0  0  0  0
  5  7  1  0  0  0  0
  7  8  2  0  0  0  0
  7  9  1  0  0  0  0
 10  9  1  1  0  0  0
  9 11  1  0  0  0  0
  9 12  1  0  0  0  0
 10 13  1  0  0  0  0
 10 14  1  0  0  0  0
 13 15  2  0  0  0  0
 13 16  1  0  0  0  0
 14 17  2  0  0  0  0
 14 18  1  0  0  0  0
 15 19  1  0  0  0  0
 15 20  1  0  0  0  0
 16 21  2  0  0  0  0
 17 22  1  0  0  0  0
 18 23  2  0  0  0  0
 20 24  2  0  0  0  0
 22 25  2  0  0  0  0
 24 26  1  0  0  0  0
  4  6  1  0  0  0  0
 17 19  1  0  0  0  0
 21 24  1  0  0  0  0
 23 25  1  0  0  0  0
M  END
>  <MolRegNo>
1162055

>  <m>
=

>  <Value>
5500

>  <Unit>
nM

>  <Type>
Ki

>  <pValue>
5.26

>  <Ligand Efficiency>
0.28

>  <Binding Efficiency>
14.31

>  <Surface Efficiency>
6.24

>  <Assay Index>
597434

>  <Assay Category>


>  <Assay Organism>


>  <Target ID>
19

>  <Target Name>
Estrogen receptor alpha

>  <Target Organism>
Homo sapiens

>  <Target Description>
Target is a single protein chain

>  <Sequence Accession>
P03372

>  <Reference>
J Med Chem 53 (23), 8241-8251 (2010)

>  <Pubmed ID>
21073190

>  <DOI>
10.1021/jm100957a

$$$$
1346095
Actelion Java MolfileCreator 1.0

 54 61  0  0  0  0  0  0  0  0999 V2000
    0.0000   -0.0000   -0.0000 O   0  0  0  0  0  0  0  0  0  0  0  0
    0.7409   -1.2906   -0.0000 C   0  0  0  0  0  0  0  0  0  0  0  0
    2.2346   -1.2786   -0.0000 C   0  0  0  0  0  0  0  0  0  0  0  0
   -0.0239   -2.5811   -0.0000 C   0  0  0  0  0  0  0  0  0  0  0  0
    2.9755    0.0478   -0.0000 N   0  0  0  0  0  0  0  0  0  0  0  0
    2.9874   -2.5692   -0.0000 C   0  0  0  0  0  0  0  0  0  0  0  0
    0.7170   -3.8717   -0.0000 C   0  0  0  0  0  0  0  0  0  0  0  0
   -1.5415   -2.5692   -0.0000 C   0  0  0  0  0  0  0  0  0  0  0  0
    4.4692    0.0597   -0.0000 C   0  0  0  0  0  0  0  0  0  0  0  0
    2.2107   -3.8717   -0.0000 C   0  0  0  0  0  0  0  0  0  0  0  0
   -0.0478   -5.1503   -0.0000 C   0  0  0  0  0  0  0  0  0  0  0  0
   -2.3063   -3.8597   -0.0000 C   0  0  0  0  0  0  0  0  0  0  0  0
    5.2100   -1.2308   -0.0000 C   0  0  0  0  0  0  0  0  0  0  0  0
    2.9516   -5.1622   -0.0000 O   0  0  0  0  0  0  0  0  0  0  0  0
   -1.5654   -5.1383   -0.0000 C   0  0  0  0  0  0  0  0  0  0  0  0
    6.7038   -1.2189   -0.0000 N   0  0  0  0  0  0  0  0  0  0  0  0
    4.7321   -2.6528   -0.0000 C   0  0  0  0  0  0  0  0  0  0  0  0
    7.1578   -2.6409   -0.0000 N   0  0  0  0  0  0  0  0  0  0  0  0
    5.9390   -3.5371   -0.0000 N   0  0  0  0  0  0  0  0  0  0  0  0
    5.9270   -5.0308   -0.0000 C   0  0  0  0  0  0  0  0  0  0  0  0
    7.2176   -5.7717   -0.0000 C   0  0  0  0  0  0  0  0  0  0  0  0
    7.2056   -7.2654   -0.0000 O   0  0  0  0  0  0  0  0  0  0  0  0
    8.4962   -8.0063   -0.0000 C   0  0  0  0  0  0  0  0  0  0  0  0
    8.4842   -9.5000   -0.0000 C   0  0  0  0  0  0  0  0  0  0  0  0
    9.7748  -10.2408   -0.0000 O   0  0  0  0  0  0  0  0  0  0  0  0
    9.7629  -11.7346   -0.0000 C   0  0  0  0  0  0  0  0  0  0  0  0
   11.0534  -12.4874   -0.0000 C   0  0  0  0  0  0  0  0  0  0  0  0
   11.0415  -13.9811   -0.0000 O   0  0  0  0  0  0  0  0  0  0  0  0
   12.3320  -14.7339   -0.0000 C   0  0  0  0  0  0  0  0  0  0  0  0
   13.6345  -13.9691   -0.0000 C   0  0  0  0  0  0  0  0  0  0  0  0
   12.3201  -16.2396   -0.0000 C   0  0  0  0  0  0  0  0  0  0  0  0
   14.9251  -14.7220   -0.0000 C   0  0  0  0  0  0  0  0  0  0  0  0
   13.6106  -16.9804   -0.0000 C   0  0  0  0  0  0  0  0  0  0  0  0
   14.9012  -16.2157   -0.0000 C   0  0  0  0  0  0  0  0  0  0  0  0
   16.1918  -16.9685   -0.0000 C   0  0  0  0  0  0  0  0  0  0  0  0
   16.1679  -18.4622   -0.0000 C   0  0  0  0  0  0  0  0  0  0  0  0
   17.4943  -16.2037   -0.0000 C   0  0  0  0  0  0  0  0  0  0  0  0
   14.8534  -19.2031   -0.0000 C   0  0  0  0  0  0  0  0  0  0  0  0
   17.4584  -19.2150   -0.0000 C   0  0  0  0  0  0  0  0  0  0  0  0
   18.7848  -16.9685   -0.0000 C   0  0  0  0  0  0  0  0  0  0  0  0
   14.8295  -20.6968   -0.0000 C   0  0  0  0  0  0  0  0  0  0  0  0
   13.5270  -18.4383   -0.0000 C   0  0  0  0  0  0  0  0  0  0  0  0
   18.7609  -18.4503   -0.0000 C   0  0  0  0  0  0  0  0  0  0  0  0
   17.4584  -20.7087   -0.0000 C   0  0  0  0  0  0  0  0  0  0  0  0
   20.2188  -16.5025   -0.0000 C   0  0  0  0  0  0  0  0  0  0  0  0
   18.7609  -15.4509   -0.0000 C   0  0  0  0  0  0  0  0  0  0  0  0
   13.5270  -21.4496   -0.0000 C   0  0  0  0  0  0  0  0  0  0  0  0
   16.1320  -21.4496   -0.0000 C   0  0  0  0  0  0  0  0  0  0  0  0
   12.2125  -19.1911   -0.0000 C   0  0  0  0  0  0  0  0  0  0  0  0
   20.1830  -18.9163   -0.0000 C   0  0  0  0  0  0  0  0  0  0  0  0
   20.6729  -15.0446   -0.0000 O   0  0  0  0  0  0  0  0  0  0  0  0
   21.0792  -17.7213   -0.0000 C   0  0  0  0  0  0  0  0  0  0  0  0
   12.2006  -20.6848   -0.0000 C   0  0  0  0  0  0  0  0  0  0  0  0
   10.8861  -21.4257   -0.0000 O   0  0  0  0  0  0  0  0  0  0  0  0
  1  2  2  0  0  0  0
  2  3  1  0  0  0  0
  2  4  1  0  0  0  0
  3  5  1  0  0  0  0
  3  6  2  0  0  0  0
  4  7  2  0  0  0  0
  4  8  1  0  0  0  0
  5  9  1  0  0  0  0
  6 10  1  0  0  0  0
  7 11  1  0  0  0  0
  8 12  2  0  0  0  0
  9 13  1  0  0  0  0
 10 14  2  0  0  0  0
 11 15  2  0  0  0  0
 13 16  1  0  0  0  0
 13 17  2  0  0  0  0
 16 18  2  0  0  0  0
 17 19  1  0  0  0  0
 19 20  1  0  0  0  0
 20 21  1  0  0  0  0
 21 22  1  0  0  0  0
 22 23  1  0  0  0  0
 23 24  1  0  0  0  0
 24 25  1  0  0  0  0
 25 26  1  0  0  0  0
 26 27  1  0  0  0  0
 27 28  1  0  0  0  0
 28 29  1  0  0  0  0
 29 30  2  0  0  0  0
 29 31  1  0  0  0  0
 30 32  1  0  0  0  0
 31 33  2  0  0  0  0
 32 34  2  0  0  0  0
 35 34  1  1  0  0  0
 35 36  1  0  0  0  0
 35 37  1  0  0  0  0
 36 38  1  1  0  0  0
 36 39  1  0  0  0  0
 37 40  1  0  0  0  0
 38 41  2  0  0  0  0
 38 42  1  0  0  0  0
 39 43  1  0  0  0  0
 39 44  1  6  0  0  0
 40 45  1  0  0  0  0
 40 46  1  1  0  0  0
 41 47  1  0  0  0  0
 41 48  1  0  0  0  0
 42 49  2  0  0  0  0
 43 50  1  1  0  0  0
 45 51  1  1  0  0  0
 45 52  1  0  0  0  0
 47 53  2  0  0  0  0
 53 54  1  0  0  0  0
  7 10  1  0  0  0  0
 12 15  1  0  0  0  0
 18 19  1  0  0  0  0
 33 34  1  0  0  0  0
 40 43  1  0  0  0  0
 44 48  1  0  0  0  0
 49 53  1  0  0  0  0
 50 52  1  0  0  0  0
M  END
>  <MolRegNo>
1346095

>  <m>
=

>  <Value>
1.1

>  <Unit>
nM

>  <Type>
Ki

>  <pValue>
8.96

>  <Ligand Efficiency>
0

>  <Binding Efficiency>
0

>  <Surface Efficiency>
0

>  <Assay Index>
657270

>  <Assay Category>


>  <Assay Organism>
Homo sapiens

>  <Target ID>
19

>  <Target Name>
Estrogen receptor alpha

>  <Target Organism>
Homo sapiens

>  <Target Description>
Target is a single protein chain

>  <Sequence Accession>
P03372

>  <Reference>
Bioorg Med Chem 20 (12), 3768-3780 (2012)

>  <Pubmed ID>
22608920

>  <DOI>
10.1016/j.bmc.2012.04.041

$$$$
1345952
Actelion Java MolfileCreator 1.0

 38 42  0  0  0  0  0  0  0  0999 V2000
    0.0000   -0.0000   -0.0000 O   0  0  0  0  0  0  0  0  0  0  0  0
    1.2835   -0.7487   -0.0000 C   0  0  0  0  0  0  0  0  0  0  0  0
   -0.0119    1.5093   -0.0000 C   0  0  0  0  0  0  0  0  0  0  0  0
    2.5788    0.0119   -0.0000 C   0  0  0  0  0  0  0  0  0  0  0  0
    1.2716   -2.2461   -0.0000 C   0  0  0  0  0  0  0  0  0  0  0  0
   -1.3191    2.2817   -0.0000 C   0  0  0  0  0  0  0  0  0  0  0  0
    3.8623   -0.7368   -0.0000 C   0  0  0  0  0  0  0  0  0  0  0  0
    2.5551   -2.9829   -0.0000 C   0  0  0  0  0  0  0  0  0  0  0  0
   -2.6383    1.5449   -0.0000 O   0  0  0  0  0  0  0  0  0  0  0  0
    3.8385   -2.2223   -0.0000 C   0  0  0  0  0  0  0  0  0  0  0  0
   -3.9455    2.3174   -0.0000 C   0  0  0  0  0  0  0  0  0  0  0  0
    5.1220   -2.9710   -0.0000 C   0  0  0  0  0  0  0  0  0  0  0  0
   -5.2646    1.5806   -0.0000 C   0  0  0  0  0  0  0  0  0  0  0  0
    5.0983   -4.4565   -0.0000 C   0  0  0  0  0  0  0  0  0  0  0  0
    6.4174   -2.2104   -0.0000 C   0  0  0  0  0  0  0  0  0  0  0  0
   -6.5719    2.3530   -0.0000 O   0  0  0  0  0  0  0  0  0  0  0  0
    3.7910   -5.1933   -0.0000 C   0  0  0  0  0  0  0  0  0  0  0  0
    6.3817   -5.2052   -0.0000 C   0  0  0  0  0  0  0  0  0  0  0  0
    7.7009   -2.9710   -0.0000 C   0  0  0  0  0  0  0  0  0  0  0  0
   -7.8910    1.6162   -0.0000 C   0  0  0  0  0  0  0  0  0  0  0  0
    3.7672   -6.6788   -0.0000 C   0  0  0  0  0  0  0  0  0  0  0  0
    2.4719   -4.4327   -0.0000 C   0  0  0  0  0  0  0  0  0  0  0  0
    7.6771   -4.4446   -0.0000 C   0  0  0  0  0  0  0  0  0  0  0  0
    6.3817   -6.6907   -0.0000 C   0  0  0  0  0  0  0  0  0  0  0  0
    9.1269   -2.5075   -0.0000 C   0  0  0  0  0  0  0  0  0  0  0  0
    7.6771   -1.4617   -0.0000 C   0  0  0  0  0  0  0  0  0  0  0  0
   -9.1982    2.3887   -0.0000 C   0  0  0  0  0  0  0  0  0  0  0  0
    2.4719   -7.4275   -0.0000 C   0  0  0  0  0  0  0  0  0  0  0  0
    5.0626   -7.4275   -0.0000 C   0  0  0  0  0  0  0  0  0  0  0  0
    1.1646   -5.1814   -0.0000 C   0  0  0  0  0  0  0  0  0  0  0  0
    9.0913   -4.9081   -0.0000 C   0  0  0  0  0  0  0  0  0  0  0  0
    9.5785   -1.0577   -0.0000 O   0  0  0  0  0  0  0  0  0  0  0  0
    9.9826   -3.7197   -0.0000 C   0  0  0  0  0  0  0  0  0  0  0  0
  -10.5174    1.6519   -0.0000 N   0  0  0  0  0  0  0  0  0  0  0  0
    1.1528   -6.6669   -0.0000 C   0  0  0  0  0  0  0  0  0  0  0  0
  -12.0266    1.6756   -0.0000 N   0  0  0  0  0  0  0  0  0  0  0  0
   -0.1545   -7.4038   -0.0000 O   0  0  0  0  0  0  0  0  0  0  0  0
  -13.5359    1.6875   -0.0000 N   0  0  0  0  0  0  0  0  0  0  0  0
  1  2  1  0  0  0  0
  1  3  1  0  0  0  0
  2  4  2  0  0  0  0
  2  5  1  0  0  0  0
  3  6  1  0  0  0  0
  4  7  1  0  0  0  0
  5  8  2  0  0  0  0
  6  9  1  0  0  0  0
  7 10  2  0  0  0  0
  9 11  1  0  0  0  0
 12 10  1  1  0  0  0
 11 13  1  0  0  0  0
 12 14  1  0  0  0  0
 12 15  1  0  0  0  0
 13 16  1  0  0  0  0
 14 17  1  1  0  0  0
 14 18  1  0  0  0  0
 15 19  1  0  0  0  0
 16 20  1  0  0  0  0
 17 21  2  0  0  0  0
 17 22  1  0  0  0  0
 18 23  1  0  0  0  0
 18 24  1  6  0  0  0
 19 25  1  0  0  0  0
 19 26  1  1  0  0  0
 20 27  1  0  0  0  0
 21 28  1  0  0  0  0
 21 29  1  0  0  0  0
 22 30  2  0  0  0  0
 23 31  1  1  0  0  0
 25 32  1  1  0  0  0
 25 33  1  0  0  0  0
 27 34  1  0  0  0  0
 28 35  2  0  0  0  0
 34 36  2  0  0  0  0
 35 37  1  0  0  0  0
 36 38  2  0  0  0  0
  8 10  1  0  0  0  0
 19 23  1  0  0  0  0
 24 29  1  0  0  0  0
 30 35  1  0  0  0  0
 31 33  1  0  0  0  0
M  CHG  2  36   1  38  -1
M  END
>  <MolRegNo>
1345952

>  <m>
=

>  <Value>
2.4

>  <Unit>
nM

>  <Type>
Ki

>  <pValue>
8.62

>  <Ligand Efficiency>
0

>  <Binding Efficiency>
0

>  <Surface Efficiency>
0

>  <Assay Index>
657270

>  <Assay Category>


>  <Assay Organism>
Homo sapiens

>  <Target ID>
19

>  <Target Name>
Estrogen receptor alpha

>  <Target Organism>
Homo sapiens

>  <Target Description>
Target is a single protein chain

>  <Sequence Accession>
P03372

>  <Reference>
Bioorg Med Chem 20 (12), 3768-3780 (2012)

>  <Pubmed ID>
22608920

>  <DOI>
10.1016/j.bmc.2012.04.041

$$$$
1051081
Actelion Java MolfileCreator 1.0

 32 36  0  0  1  0  0  0  0  0999 V2000
    0.0000   -0.0000   -0.0000 O   0  0  0  0  0  0  0  0  0  0  0  0
    1.2675   -0.7175   -0.0000 C   0  0  0  0  0  0  0  0  0  0  0  0
   -0.0239    1.5067   -0.0000 C   0  0  0  0  0  0  0  0  0  0  0  0
    2.5590    0.0478   -0.0000 C   0  0  0  0  0  0  0  0  0  0  0  0
    1.2795   -2.2242   -0.0000 C   0  0  0  0  0  0  0  0  0  0  0  0
   -1.3512    2.2720   -0.0000 C   0  0  0  0  0  0  0  0  0  0  0  0
    3.8504   -0.6936   -0.0000 C   0  0  0  0  0  0  0  0  0  0  0  0
    2.5709   -2.9416   -0.0000 C   0  0  0  0  0  0  0  0  0  0  0  0
   -1.3632    3.7787   -0.0000 N   0  0  0  0  0  0  0  0  0  0  0  0
    3.8385   -2.1763   -0.0000 C   0  0  0  0  0  0  0  0  0  0  0  0
   -2.6546    4.5440   -0.0000 C   0  0  0  0  0  0  0  0  0  0  0  0
   -0.0717    4.5440   -0.0000 C   0  0  0  0  0  0  0  0  0  0  0  0
    5.1299   -2.8938   -0.0000 C   0  0  0  0  0  0  0  0  0  0  0  0
    5.1180   -4.4005   -0.0000 C   0  0  0  0  0  0  0  0  0  0  0  0
    6.4333   -2.1285   -0.0000 C   0  0  0  0  0  0  0  0  0  0  0  0
    3.8146   -5.1538   -0.0000 C   0  0  0  0  0  0  0  0  0  0  0  0
    6.4333   -5.1419   -0.0000 C   0  0  0  0  0  0  0  0  0  0  0  0
    7.7367   -2.8699   -0.0000 C   0  0  0  0  0  0  0  0  0  0  0  0
    3.8146   -6.6605   -0.0000 C   0  0  0  0  0  0  0  0  0  0  0  0
    2.5112   -4.3885   -0.0000 C   0  0  0  0  0  0  0  0  0  0  0  0
    7.7128   -4.3766   -0.0000 C   0  0  0  0  0  0  0  0  0  0  0  0
    6.4214   -6.6486   -0.0000 C   0  0  0  0  0  0  0  0  0  0  0  0
    9.1597   -2.4035   -0.0000 C   0  0  0  0  0  0  0  0  0  0  0  0
    7.7128   -1.3632   -0.0000 C   0  0  0  0  0  0  0  0  0  0  0  0
    2.4992   -7.3780   -0.0000 C   0  0  0  0  0  0  0  0  0  0  0  0
    5.1060   -7.3780   -0.0000 C   0  0  0  0  0  0  0  0  0  0  0  0
    1.2077   -5.1299   -0.0000 C   0  0  0  0  0  0  0  0  0  0  0  0
    9.1478   -4.8429   -0.0000 C   0  0  0  0  0  0  0  0  0  0  0  0
    9.1358   -0.8968   -0.0000 O   0  0  0  0  0  0  0  0  0  0  0  0
   10.0446   -3.6113   -0.0000 C   0  0  0  0  0  0  0  0  0  0  0  0
    1.1958   -6.6127   -0.0000 C   0  0  0  0  0  0  0  0  0  0  0  0
   -0.1196   -7.3541   -0.0000 O   0  0  0  0  0  0  0  0  0  0  0  0
  1  2  1  0  0  0  0
  1  3  1  0  0  0  0
  2  4  2  0  0  0  0
  2  5  1  0  0  0  0
  3  6  1  0  0  0  0
  4  7  1  0  0  0  0
  5  8  2  0  0  0  0
  6  9  1  0  0  0  0
  7 10  2  0  0  0  0
  9 11  1  0  0  0  0
  9 12  1  0  0  0  0
 13 10  1  1  0  0  0
 13 14  1  0  0  0  0
 13 15  1  0  0  0  0
 14 16  1  1  0  0  0
 14 17  1  0  0  0  0
 15 18  1  0  0  0  0
 16 19  2  0  0  0  0
 16 20  1  0  0  0  0
 17 21  1  0  0  0  0
 17 22  1  6  0  0  0
 18 23  1  0  0  0  0
 18 24  1  1  0  0  0
 19 25  1  0  0  0  0
 19 26  1  0  0  0  0
 20 27  2  0  0  0  0
 21 28  1  1  0  0  0
 23 29  1  1  0  0  0
 23 30  1  0  0  0  0
 25 31  2  0  0  0  0
 31 32  1  0  0  0  0
  8 10  1  0  0  0  0
 18 21  1  0  0  0  0
 22 26  1  0  0  0  0
 27 31  1  0  0  0  0
 28 30  1  0  0  0  0
M  END
>  <MolRegNo>
1051081

>  <m>
=

>  <Value>
41.5

>  <Unit>
nM

>  <Type>
Ki

>  <pValue>
7.38

>  <Ligand Efficiency>
0

>  <Binding Efficiency>
0

>  <Surface Efficiency>
0

>  <Assay Index>
657270

>  <Assay Category>


>  <Assay Organism>
Homo sapiens

>  <Target ID>
19

>  <Target Name>
Estrogen receptor alpha

>  <Target Organism>
Homo sapiens

>  <Target Description>
Target is a single protein chain

>  <Sequence Accession>
P03372

>  <Reference>
Bioorg Med Chem 20 (12), 3768-3780 (2012)

>  <Pubmed ID>
22608920

>  <DOI>
10.1016/j.bmc.2012.04.041

$$$$
1346096
Actelion Java MolfileCreator 1.0

 42 46  0  0  0  0  0  0  0  0999 V2000
    0.0000   -0.0000   -0.0000 S   0  0  0  0  0  0  0  0  0  0  0  0
   -0.7739    1.3216   -0.0000 O   0  0  0  0  0  0  0  0  0  0  0  0
    0.7382    1.3216   -0.0000 O   0  0  0  0  0  0  0  0  0  0  0  0
   -1.3097   -0.7382   -0.0000 C   0  0  0  0  0  0  0  0  0  0  0  0
    1.2978   -0.7501   -0.0000 C   0  0  0  0  0  0  0  0  0  0  0  0
   -0.5715   -2.0241   -0.0000 F   0  0  0  0  0  0  0  0  0  0  0  0
   -2.0717   -2.0241   -0.0000 F   0  0  0  0  0  0  0  0  0  0  0  0
   -2.6195    0.0238   -0.0000 C   0  0  0  0  0  0  0  0  0  0  0  0
    2.5956    0.0119   -0.0000 C   0  0  0  0  0  0  0  0  0  0  0  0
   -3.9411    0.7858   -0.0000 F   0  0  0  0  0  0  0  0  0  0  0  0
   -2.6314    1.5360   -0.0000 F   0  0  0  0  0  0  0  0  0  0  0  0
   -3.9292   -0.7144   -0.0000 F   0  0  0  0  0  0  0  0  0  0  0  0
    3.8816   -0.7382   -0.0000 C   0  0  0  0  0  0  0  0  0  0  0  0
    5.1794    0.0238   -0.0000 C   0  0  0  0  0  0  0  0  0  0  0  0
    6.4653   -0.7263   -0.0000 C   0  0  0  0  0  0  0  0  0  0  0  0
    6.4534   -2.2146   -0.0000 O   0  0  0  0  0  0  0  0  0  0  0  0
    7.7393   -2.9647   -0.0000 C   0  0  0  0  0  0  0  0  0  0  0  0
    9.0371   -2.2027   -0.0000 C   0  0  0  0  0  0  0  0  0  0  0  0
    7.7274   -4.4650   -0.0000 C   0  0  0  0  0  0  0  0  0  0  0  0
   10.3230   -2.9528   -0.0000 C   0  0  0  0  0  0  0  0  0  0  0  0
    9.0133   -5.2032   -0.0000 C   0  0  0  0  0  0  0  0  0  0  0  0
   10.2992   -4.4412   -0.0000 C   0  0  0  0  0  0  0  0  0  0  0  0
   11.5851   -5.1913   -0.0000 C   0  0  0  0  0  0  0  0  0  0  0  0
   11.5613   -6.6796   -0.0000 C   0  0  0  0  0  0  0  0  0  0  0  0
   12.8829   -4.4293   -0.0000 C   0  0  0  0  0  0  0  0  0  0  0  0
   10.2516   -7.4178   -0.0000 C   0  0  0  0  0  0  0  0  0  0  0  0
   12.8472   -7.4297   -0.0000 C   0  0  0  0  0  0  0  0  0  0  0  0
   14.1689   -5.1913   -0.0000 C   0  0  0  0  0  0  0  0  0  0  0  0
   10.2278   -8.9061   -0.0000 C   0  0  0  0  0  0  0  0  0  0  0  0
    8.9300   -6.6558   -0.0000 C   0  0  0  0  0  0  0  0  0  0  0  0
   14.1450   -6.6677   -0.0000 C   0  0  0  0  0  0  0  0  0  0  0  0
   12.8472   -8.9180   -0.0000 C   0  0  0  0  0  0  0  0  0  0  0  0
   15.5977   -4.7269   -0.0000 C   0  0  0  0  0  0  0  0  0  0  0  0
   14.1450   -3.6791   -0.0000 C   0  0  0  0  0  0  0  0  0  0  0  0
    8.9300   -9.6563   -0.0000 C   0  0  0  0  0  0  0  0  0  0  0  0
   11.5256   -9.6563   -0.0000 C   0  0  0  0  0  0  0  0  0  0  0  0
    7.6202   -7.4059   -0.0000 C   0  0  0  0  0  0  0  0  0  0  0  0
   15.5619   -7.1321   -0.0000 C   0  0  0  0  0  0  0  0  0  0  0  0
   16.0501   -3.2743   -0.0000 O   0  0  0  0  0  0  0  0  0  0  0  0
   16.4549   -5.9414   -0.0000 C   0  0  0  0  0  0  0  0  0  0  0  0
    7.6083   -8.8942   -0.0000 C   0  0  0  0  0  0  0  0  0  0  0  0
    6.2986   -9.6324   -0.0000 O   0  0  0  0  0  0  0  0  0  0  0  0
  1  2  2  0  0  0  0
  1  3  2  0  0  0  0
  1  4  1  0  0  0  0
  1  5  1  0  0  0  0
  4  6  1  0  0  0  0
  4  7  1  0  0  0  0
  4  8  1  0  0  0  0
  5  9  1  0  0  0  0
  8 10  1  0  0  0  0
  8 11  1  0  0  0  0
  8 12  1  0  0  0  0
  9 13  1  0  0  0  0
 13 14  1  0  0  0  0
 14 15  1  0  0  0  0
 15 16  1  0  0  0  0
 16 17  1  0  0  0  0
 17 18  2  0  0  0  0
 17 19  1  0  0  0  0
 18 20  1  0  0  0  0
 19 21  2  0  0  0  0
 20 22  2  0  0  0  0
 23 22  1  1  0  0  0
 23 24  1  0  0  0  0
 23 25  1  0  0  0  0
 24 26  1  1  0  0  0
 24 27  1  0  0  0  0
 25 28  1  0  0  0  0
 26 29  2  0  0  0  0
 26 30  1  0  0  0  0
 27 31  1  0  0  0  0
 27 32  1  6  0  0  0
 28 33  1  0  0  0  0
 28 34  1  1  0  0  0
 29 35  1  0  0  0  0
 29 36  1  0  0  0  0
 30 37  2  0  0  0  0
 31 38  1  1  0  0  0
 33 39  1  1  0  0  0
 33 40  1  0  0  0  0
 35 41  2  0  0  0  0
 41 42  1  0  0  0  0
 21 22  1  0  0  0  0
 28 31  1  0  0  0  0
 32 36  1  0  0  0  0
 37 41  1  0  0  0  0
 38 40  1  0  0  0  0
M  END
>  <MolRegNo>
1346096

>  <m>
=

>  <Value>
5.3

>  <Unit>
nM

>  <Type>
Ki

>  <pValue>
8.28

>  <Ligand Efficiency>
0

>  <Binding Efficiency>
0

>  <Surface Efficiency>
0

>  <Assay Index>
657270

>  <Assay Category>


>  <Assay Organism>
Homo sapiens

>  <Target ID>
19

>  <Target Name>
Estrogen receptor alpha

>  <Target Organism>
Homo sapiens

>  <Target Description>
Target is a single protein chain

>  <Sequence Accession>
P03372

>  <Reference>
Bioorg Med Chem 20 (12), 3768-3780 (2012)

>  <Pubmed ID>
22608920

>  <DOI>
10.1016/j.bmc.2012.04.041

$$$$
67508
Actelion Java MolfileCreator 1.0

 37 41  0  0  0  0  0  0  0  0999 V2000
    0.0000   -0.0000   -0.0000 S   0  0  0  0  0  0  0  0  0  0  0  0
    0.8640    1.2308   -0.0000 C   0  0  0  0  0  0  0  0  0  0  0  0
   -1.4439    0.4616   -0.0000 C   0  0  0  0  0  0  0  0  0  0  0  0
    2.3552    1.2545   -0.0000 C   0  0  0  0  0  0  0  0  0  0  0  0
   -0.0473    2.4617   -0.0000 C   0  0  0  0  0  0  0  0  0  0  0  0
   -1.4675    1.9764   -0.0000 C   0  0  0  0  0  0  0  0  0  0  0  0
   -2.7812   -0.2959   -0.0000 C   0  0  0  0  0  0  0  0  0  0  0  0
    3.1008   -0.0355   -0.0000 C   0  0  0  0  0  0  0  0  0  0  0  0
    3.0771    2.5682   -0.0000 C   0  0  0  0  0  0  0  0  0  0  0  0
    0.3906    3.8937   -0.0000 C   0  0  0  0  0  0  0  0  0  0  0  0
   -2.7931    2.7339   -0.0000 C   0  0  0  0  0  0  0  0  0  0  0  0
   -4.0949    0.4616   -0.0000 C   0  0  0  0  0  0  0  0  0  0  0  0
    4.5920   -0.0237   -0.0000 C   0  0  0  0  0  0  0  0  0  0  0  0
    4.5683    2.6037   -0.0000 C   0  0  0  0  0  0  0  0  0  0  0  0
   -0.6273    5.0180   -0.0000 O   0  0  0  0  0  0  0  0  0  0  0  0
    1.8463    4.2369   -0.0000 C   0  0  0  0  0  0  0  0  0  0  0  0
   -4.1067    1.9764   -0.0000 C   0  0  0  0  0  0  0  0  0  0  0  0
   -5.4086   -0.2722   -0.0000 O   0  0  0  0  0  0  0  0  0  0  0  0
    5.3139    1.2900   -0.0000 C   0  0  0  0  0  0  0  0  0  0  0  0
    2.8404    3.1363   -0.0000 C   0  0  0  0  0  0  0  0  0  0  0  0
    2.2723    5.6690   -0.0000 C   0  0  0  0  0  0  0  0  0  0  0  0
    6.8051    1.3137   -0.0000 C   0  0  0  0  0  0  0  0  0  0  0  0
    4.2843    3.4677   -0.0000 C   0  0  0  0  0  0  0  0  0  0  0  0
    3.7280    6.0122   -0.0000 C   0  0  0  0  0  0  0  0  0  0  0  0
    7.5626    0.0237   -0.0000 C   0  0  0  0  0  0  0  0  0  0  0  0
    4.7458    4.9115   -0.0000 C   0  0  0  0  0  0  0  0  0  0  0  0
    9.0538    0.0473   -0.0000 C   0  0  0  0  0  0  0  0  0  0  0  0
    6.2015    5.2429   -0.0000 O   0  0  0  0  0  0  0  0  0  0  0  0
    9.7994   -1.2190   -0.0000 C   0  0  0  0  0  0  0  0  0  0  0  0
    7.1957    4.1423   -0.0000 C   0  0  0  0  0  0  0  0  0  0  0  0
    8.6632    4.4736   -0.0000 C   0  0  0  0  0  0  0  0  0  0  0  0
    9.6574    3.3848   -0.0000 N   0  0  0  0  0  0  0  0  0  0  0  0
   11.1131    3.7399   -0.0000 C   0  0  0  0  0  0  0  0  0  0  0  0
    9.1958    1.9646   -0.0000 C   0  0  0  0  0  0  0  0  0  0  0  0
   12.1072    2.6155   -0.0000 C   0  0  0  0  0  0  0  0  0  0  0  0
   10.1899    0.8640   -0.0000 C   0  0  0  0  0  0  0  0  0  0  0  0
   11.6456    1.1953   -0.0000 C   0  0  0  0  0  0  0  0  0  0  0  0
  1  2  1  0  0  0  0
  1  3  1  0  0  0  0
  2  4  1  0  0  0  0
  2  5  2  0  0  0  0
  3  6  2  0  0  0  0
  3  7  1  0  0  0  0
  4  8  2  0  0  0  0
  4  9  1  0  0  0  0
  5 10  1  0  0  0  0
  6 11  1  0  0  0  0
  7 12  2  0  0  0  0
  8 13  1  0  0  0  0
  9 14  2  0  0  0  0
 10 15  2  0  0  0  0
 10 16  1  0  0  0  0
 11 17  2  0  0  0  0
 12 18  1  0  0  0  0
 13 19  2  0  0  0  0
 16 20  2  0  0  0  0
 16 21  1  0  0  0  0
 19 22  1  0  0  0  0
 20 23  1  0  0  0  0
 21 24  2  0  0  0  0
 22 25  1  0  0  0  0
 23 26  2  0  0  0  0
 25 27  1  0  0  0  0
 26 28  1  0  0  0  0
 27 29  1  0  0  0  0
 28 30  1  0  0  0  0
 30 31  1  0  0  0  0
 31 32  1  0  0  0  0
 32 33  1  0  0  0  0
 32 34  1  0  0  0  0
 33 35  1  0  0  0  0
 34 36  1  0  0  0  0
 35 37  1  0  0  0  0
  5  6  1  0  0  0  0
 12 17  1  0  0  0  0
 14 19  1  0  0  0  0
 24 26  1  0  0  0  0
 36 37  1  0  0  0  0
M  END
>  <MolRegNo>
67508

>  <m>
=

>  <Value>
0.25

>  <Unit>
nM

>  <Type>
Ki

>  <pValue>
9.6

>  <Ligand Efficiency>
0.35

>  <Binding Efficiency>
18.69

>  <Surface Efficiency>
19.29

>  <Assay Index>
661076

>  <Assay Category>


>  <Assay Organism>


>  <Target ID>
19

>  <Target Name>
Estrogen receptor alpha

>  <Target Organism>
Homo sapiens

>  <Target Description>
Target is a single protein chain

>  <Sequence Accession>
P03372

>  <Reference>
ACS Med Chem Lett 3 (3), 207-210 (2012)

>  <Pubmed ID>
22582136

>  <DOI>
10.1021/ml2002532

$$$$
1950494
Actelion Java MolfileCreator 1.0

 31 35  0  0  0  0  0  0  0  0999 V2000
    0.0000   -0.0000   -0.0000 S   0  0  0  0  0  0  0  0  0  0  0  0
   -0.1211    1.2350   -0.0000 O   0  0  0  0  0  0  0  0  0  0  0  0
   -1.1260    0.5327   -0.0000 O   0  0  0  0  0  0  0  0  0  0  0  0
   -1.2592   -0.8596   -0.0000 O   0  0  0  0  0  0  0  0  0  0  0  0
    1.3682   -0.6296   -0.0000 C   0  0  0  0  0  0  0  0  0  0  0  0
   -2.6637   -0.2058   -0.0000 C   0  0  0  0  0  0  0  0  0  0  0  0
    2.5184    0.2300   -0.0000 C   0  0  0  0  0  0  0  0  0  0  0  0
    1.5134   -2.0462   -0.0000 C   0  0  0  0  0  0  0  0  0  0  0  0
   -3.9350   -1.0655   -0.0000 C   0  0  0  0  0  0  0  0  0  0  0  0
   -2.8090    1.3318   -0.0000 C   0  0  0  0  0  0  0  0  0  0  0  0
    1.4045    1.1260   -0.0000 O   0  0  0  0  0  0  0  0  0  0  0  0
    3.8260   -0.3874   -0.0000 C   0  0  0  0  0  0  0  0  0  0  0  0
    2.6758   -1.2229   -0.0000 C   0  0  0  0  0  0  0  0  0  0  0  0
   -5.3273   -0.3995   -0.0000 C   0  0  0  0  0  0  0  0  0  0  0  0
   -4.2013    1.9977   -0.0000 C   0  0  0  0  0  0  0  0  0  0  0  0
    5.1215    0.2179   -0.0000 C   0  0  0  0  0  0  0  0  0  0  0  0
    3.9592   -1.7919   -0.0000 C   0  0  0  0  0  0  0  0  0  0  0  0
   -5.4726    1.1381   -0.0000 C   0  0  0  0  0  0  0  0  0  0  0  0
    5.0489    1.7677   -0.0000 C   0  0  0  0  0  0  0  0  0  0  0  0
    6.4654   -0.4722   -0.0000 C   0  0  0  0  0  0  0  0  0  0  0  0
    5.3394   -2.0825   -0.0000 C   0  0  0  0  0  0  0  0  0  0  0  0
    6.3323    2.5910   -0.0000 C   0  0  0  0  0  0  0  0  0  0  0  0
    7.7488    0.3511   -0.0000 C   0  0  0  0  0  0  0  0  0  0  0  0
    5.5816   -3.5838   -0.0000 C   0  0  0  0  0  0  0  0  0  0  0  0
    6.5139   -1.1018   -0.0000 C   0  0  0  0  0  0  0  0  0  0  0  0
    7.6762    1.8888   -0.0000 C   0  0  0  0  0  0  0  0  0  0  0  0
    6.9982   -4.1045   -0.0000 C   0  0  0  0  0  0  0  0  0  0  0  0
    7.9305   -1.6224   -0.0000 C   0  0  0  0  0  0  0  0  0  0  0  0
    8.6932    2.5547   -0.0000 O   0  0  0  0  0  0  0  0  0  0  0  0
    8.1605   -3.1238   -0.0000 C   0  0  0  0  0  0  0  0  0  0  0  0
    9.2986   -3.5354   -0.0000 O   0  0  0  0  0  0  0  0  0  0  0  0
  1  2  2  0  0  0  0
  1  3  2  0  0  0  0
  1  4  1  0  0  0  0
  5  1  1  6  0  0  0
  4  6  1  0  0  0  0
  5  7  1  0  0  0  0
  5  8  1  0  0  0  0
  6  9  2  0  0  0  0
  6 10  1  0  0  0  0
  7 11  1  6  0  0  0
  7 12  1  0  0  0  0
  8 13  1  0  0  0  0
  9 14  1  0  0  0  0
 10 15  2  0  0  0  0
 12 16  1  0  0  0  0
 12 17  2  0  0  0  0
 14 18  2  0  0  0  0
 16 19  2  0  0  0  0
 16 20  1  0  0  0  0
 17 21  1  0  0  0  0
 19 22  1  0  0  0  0
 20 23  2  0  0  0  0
 21 24  2  0  0  0  0
 21 25  1  0  0  0  0
 22 26  2  0  0  0  0
 24 27  1  0  0  0  0
 25 28  2  0  0  0  0
 26 29  1  0  0  0  0
 27 30  2  0  0  0  0
 30 31  1  0  0  0  0
 13 11  1  1  0  0  0
 13 17  1  0  0  0  0
 15 18  1  0  0  0  0
 23 26  1  0  0  0  0
 28 30  1  0  0  0  0
M  END
>  <MolRegNo>
1950494

>  <m>
=

>  <Value>
21.53

>  <Unit>
nM

>  <Type>
Ki

>  <pValue>
7.67

>  <Ligand Efficiency>
0.34

>  <Binding Efficiency>
17.57

>  <Surface Efficiency>
8.24

>  <Assay Index>
949887

>  <Assay Category>


>  <Assay Organism>
Homo sapiens

>  <Target ID>
19

>  <Target Name>
Estrogen receptor alpha

>  <Target Organism>
Homo sapiens

>  <Target Description>
Target is a single protein chain

>  <Sequence Accession>
P03372

>  <Reference>
J Med Chem 58 (11), 4550-4572 (2015)

>  <Pubmed ID>
25993269

>  <DOI>
10.1021/acs.jmedchem.5b00099

$$$$
1950495
Actelion Java MolfileCreator 1.0

 44 48  0  0  0  0  0  0  0  0999 V2000
    0.0000   -0.0000   -0.0000 S   0  0  0  0  0  0  0  0  0  0  0  0
   -0.0860   -1.2284   -0.0000 O   0  0  0  0  0  0  0  0  0  0  0  0
   -1.1179   -0.5405   -0.0000 O   0  0  0  0  0  0  0  0  0  0  0  0
   -1.3021    0.8599   -0.0000 O   0  0  0  0  0  0  0  0  0  0  0  0
    1.3759    0.7002   -0.0000 C   0  0  0  0  0  0  0  0  0  0  0  0
   -2.7026    0.1843   -0.0000 C   0  0  0  0  0  0  0  0  0  0  0  0
    2.5674   -0.0123   -0.0000 C   0  0  0  0  0  0  0  0  0  0  0  0
    1.3636    2.2726   -0.0000 C   0  0  0  0  0  0  0  0  0  0  0  0
   -4.0047    1.0442   -0.0000 C   0  0  0  0  0  0  0  0  0  0  0  0
   -2.8008   -1.3513   -0.0000 C   0  0  0  0  0  0  0  0  0  0  0  0
    3.1939    1.4618   -0.0000 O   0  0  0  0  0  0  0  0  0  0  0  0
    3.8819    0.7248   -0.0000 C   0  0  0  0  0  0  0  0  0  0  0  0
    2.5552    3.0588   -0.0000 C   0  0  0  0  0  0  0  0  0  0  0  0
   -5.4051    0.3562   -0.0000 C   0  0  0  0  0  0  0  0  0  0  0  0
   -4.2013   -2.0392   -0.0000 C   0  0  0  0  0  0  0  0  0  0  0  0
    5.3683    0.2948   -0.0000 C   0  0  0  0  0  0  0  0  0  0  0  0
    3.8696    2.2972   -0.0000 C   0  0  0  0  0  0  0  0  0  0  0  0
   -5.5034   -1.1793   -0.0000 C   0  0  0  0  0  0  0  0  0  0  0  0
    5.4666   -1.2530   -0.0000 C   0  0  0  0  0  0  0  0  0  0  0  0
    6.6459    1.1547   -0.0000 C   0  0  0  0  0  0  0  0  0  0  0  0
    5.3560    2.7517   -0.0000 C   0  0  0  0  0  0  0  0  0  0  0  0
   -6.9038   -1.8672   -0.0000 N   0  0  0  0  0  0  0  0  0  0  0  0
    6.8424   -1.9164   -0.0000 C   0  0  0  0  0  0  0  0  0  0  0  0
    8.0217    0.4914   -0.0000 C   0  0  0  0  0  0  0  0  0  0  0  0
    5.4543    4.3241   -0.0000 C   0  0  0  0  0  0  0  0  0  0  0  0
    6.6336    1.9164   -0.0000 C   0  0  0  0  0  0  0  0  0  0  0  0
   -7.0021   -3.4028   -0.0000 C   0  0  0  0  0  0  0  0  0  0  0  0
    8.1077   -1.0319   -0.0000 C   0  0  0  0  0  0  0  0  0  0  0  0
    6.8301    5.0120   -0.0000 C   0  0  0  0  0  0  0  0  0  0  0  0
    8.0094    2.6043   -0.0000 C   0  0  0  0  0  0  0  0  0  0  0  0
   -5.9825   -4.0661   -0.0000 O   0  0  0  0  0  0  0  0  0  0  0  0
   -8.4025   -4.0907   -0.0000 C   0  0  0  0  0  0  0  0  0  0  0  0
    9.2133   -1.5601   -0.0000 O   0  0  0  0  0  0  0  0  0  0  0  0
    8.0954    4.1521   -0.0000 C   0  0  0  0  0  0  0  0  0  0  0  0
   -8.5008   -5.6263   -0.0000 C   0  0  0  0  0  0  0  0  0  0  0  0
    9.2010    4.7049   -0.0000 O   0  0  0  0  0  0  0  0  0  0  0  0
   -9.9012   -6.3142   -0.0000 C   0  0  0  0  0  0  0  0  0  0  0  0
   -9.9995   -7.8497   -0.0000 C   0  0  0  0  0  0  0  0  0  0  0  0
  -11.3999   -8.5377   -0.0000 C   0  0  0  0  0  0  0  0  0  0  0  0
  -11.4982  -10.0732   -0.0000 C   0  0  0  0  0  0  0  0  0  0  0  0
  -12.8986  -10.7611   -0.0000 C   0  0  0  0  0  0  0  0  0  0  0  0
  -13.9428  -10.0732   -0.0000 O   0  0  0  0  0  0  0  0  0  0  0  0
  -12.9969  -12.2967   -0.0000 O   0  0  0  0  0  0  0  0  0  0  0  0
  -14.1148  -12.8372   -0.0000 C   0  0  0  0  0  0  0  0  0  0  0  0
  1  2  2  0  0  0  0
  1  3  2  0  0  0  0
  1  4  1  0  0  0  0
  1  5  1  0  0  0  0
  4  6  1  0  0  0  0
  5  7  1  0  0  0  0
  5  8  1  0  0  0  0
  6  9  2  0  0  0  0
  6 10  1  0  0  0  0
  7 11  1  0  0  0  0
  7 12  1  0  0  0  0
  8 13  1  0  0  0  0
  9 14  1  0  0  0  0
 10 15  2  0  0  0  0
 12 16  1  0  0  0  0
 12 17  2  0  0  0  0
 14 18  2  0  0  0  0
 16 19  2  0  0  0  0
 16 20  1  0  0  0  0
 17 21  1  0  0  0  0
 18 22  1  0  0  0  0
 19 23  1  0  0  0  0
 20 24  2  0  0  0  0
 21 25  2  0  0  0  0
 21 26  1  0  0  0  0
 22 27  1  0  0  0  0
 23 28  2  0  0  0  0
 25 29  1  0  0  0  0
 26 30  2  0  0  0  0
 27 31  2  0  0  0  0
 27 32  1  0  0  0  0
 28 33  1  0  0  0  0
 29 34  2  0  0  0  0
 32 35  1  0  0  0  0
 34 36  1  0  0  0  0
 35 37  1  0  0  0  0
 37 38  1  0  0  0  0
 38 39  1  0  0  0  0
 39 40  1  0  0  0  0
 40 41  1  0  0  0  0
 41 42  2  0  0  0  0
 41 43  1  0  0  0  0
 43 44  1  0  0  0  0
 11 13  1  0  0  0  0
 13 17  1  0  0  0  0
 15 18  1  0  0  0  0
 24 28  1  0  0  0  0
 30 34  1  0  0  0  0
M  END
>  <MolRegNo>
1950495

>  <m>
=

>  <Value>
59.86

>  <Unit>
nM

>  <Type>
Ki

>  <pValue>
7.22

>  <Ligand Efficiency>
0.22

>  <Binding Efficiency>
11.62

>  <Surface Efficiency>
4.87

>  <Assay Index>
949887

>  <Assay Category>


>  <Assay Organism>
Homo sapiens

>  <Target ID>
19

>  <Target Name>
Estrogen receptor alpha

>  <Target Organism>
Homo sapiens

>  <Target Description>
Target is a single protein chain

>  <Sequence Accession>
P03372

>  <Reference>
J Med Chem 58 (11), 4550-4572 (2015)

>  <Pubmed ID>
25993269

>  <DOI>
10.1021/acs.jmedchem.5b00099

$$$$
1950496
Actelion Java MolfileCreator 1.0

 44 48  0  0  0  0  0  0  0  0999 V2000
    0.0000   -0.0000   -0.0000 S   0  0  0  0  0  0  0  0  0  0  0  0
   -0.0858   -1.2261   -0.0000 O   0  0  0  0  0  0  0  0  0  0  0  0
   -1.1158   -0.5395   -0.0000 O   0  0  0  0  0  0  0  0  0  0  0  0
   -1.2997    0.8583   -0.0000 O   0  0  0  0  0  0  0  0  0  0  0  0
    1.3732    0.6989   -0.0000 C   0  0  0  0  0  0  0  0  0  0  0  0
   -2.6974    0.1839   -0.0000 C   0  0  0  0  0  0  0  0  0  0  0  0
    2.5626   -0.0123   -0.0000 C   0  0  0  0  0  0  0  0  0  0  0  0
    1.3610    2.2683   -0.0000 C   0  0  0  0  0  0  0  0  0  0  0  0
   -3.9971    1.0422   -0.0000 C   0  0  0  0  0  0  0  0  0  0  0  0
   -2.7955   -1.3487   -0.0000 C   0  0  0  0  0  0  0  0  0  0  0  0
    3.1879    1.4591   -0.0000 O   0  0  0  0  0  0  0  0  0  0  0  0
    3.8745    0.7234   -0.0000 C   0  0  0  0  0  0  0  0  0  0  0  0
    2.5503    3.0530   -0.0000 C   0  0  0  0  0  0  0  0  0  0  0  0
   -5.3949    0.3556   -0.0000 C   0  0  0  0  0  0  0  0  0  0  0  0
   -4.1933   -2.0353   -0.0000 C   0  0  0  0  0  0  0  0  0  0  0  0
    5.3581    0.2943   -0.0000 C   0  0  0  0  0  0  0  0  0  0  0  0
    3.8623    2.2928   -0.0000 C   0  0  0  0  0  0  0  0  0  0  0  0
   -6.6946    1.2139   -0.0000 N   0  0  0  0  0  0  0  0  0  0  0  0
   -5.4930   -1.1771   -0.0000 C   0  0  0  0  0  0  0  0  0  0  0  0
    5.4562   -1.2506   -0.0000 C   0  0  0  0  0  0  0  0  0  0  0  0
    6.6333    1.1525   -0.0000 C   0  0  0  0  0  0  0  0  0  0  0  0
    5.3459    2.7465   -0.0000 C   0  0  0  0  0  0  0  0  0  0  0  0
   -8.0923    0.5272   -0.0000 C   0  0  0  0  0  0  0  0  0  0  0  0
    6.8295   -1.9127   -0.0000 C   0  0  0  0  0  0  0  0  0  0  0  0
    8.0065    0.4904   -0.0000 C   0  0  0  0  0  0  0  0  0  0  0  0
    5.4439    4.3159   -0.0000 C   0  0  0  0  0  0  0  0  0  0  0  0
    6.6210    1.9127   -0.0000 C   0  0  0  0  0  0  0  0  0  0  0  0
   -8.1782   -0.6989   -0.0000 O   0  0  0  0  0  0  0  0  0  0  0  0
   -9.3920    1.3855   -0.0000 C   0  0  0  0  0  0  0  0  0  0  0  0
    8.0923   -1.0299   -0.0000 C   0  0  0  0  0  0  0  0  0  0  0  0
    6.8172    5.0025   -0.0000 C   0  0  0  0  0  0  0  0  0  0  0  0
    7.9943    2.5994   -0.0000 C   0  0  0  0  0  0  0  0  0  0  0  0
  -10.7898    0.6989   -0.0000 C   0  0  0  0  0  0  0  0  0  0  0  0
    9.1959   -1.5572   -0.0000 O   0  0  0  0  0  0  0  0  0  0  0  0
    8.0801    4.1443   -0.0000 C   0  0  0  0  0  0  0  0  0  0  0  0
  -12.0895    1.5572   -0.0000 C   0  0  0  0  0  0  0  0  0  0  0  0
    9.1836    4.6960   -0.0000 O   0  0  0  0  0  0  0  0  0  0  0  0
  -13.4872    0.8705   -0.0000 C   0  0  0  0  0  0  0  0  0  0  0  0
  -14.7869    1.7288   -0.0000 C   0  0  0  0  0  0  0  0  0  0  0  0
  -16.1847    1.0422   -0.0000 C   0  0  0  0  0  0  0  0  0  0  0  0
  -17.4844    1.9005   -0.0000 C   0  0  0  0  0  0  0  0  0  0  0  0
  -17.4231    3.1511   -0.0000 O   0  0  0  0  0  0  0  0  0  0  0  0
  -18.8821    1.2139   -0.0000 O   0  0  0  0  0  0  0  0  0  0  0  0
  -19.9243    1.9005   -0.0000 C   0  0  0  0  0  0  0  0  0  0  0  0
  1  2  2  0  0  0  0
  1  3  2  0  0  0  0
  1  4  1  0  0  0  0
  1  5  1  0  0  0  0
  4  6  1  0  0  0  0
  5  7  1  0  0  0  0
  5  8  1  0  0  0  0
  6  9  2  0  0  0  0
  6 10  1  0  0  0  0
  7 11  1  0  0  0  0
  7 12  1  0  0  0  0
  8 13  1  0  0  0  0
  9 14  1  0  0  0  0
 10 15  2  0  0  0  0
 12 16  1  0  0  0  0
 12 17  2  0  0  0  0
 14 18  1  0  0  0  0
 14 19  2  0  0  0  0
 16 20  2  0  0  0  0
 16 21  1  0  0  0  0
 17 22  1  0  0  0  0
 18 23  1  0  0  0  0
 20 24  1  0  0  0  0
 21 25  2  0  0  0  0
 22 26  2  0  0  0  0
 22 27  1  0  0  0  0
 23 28  2  0  0  0  0
 23 29  1  0  0  0  0
 24 30  2  0  0  0  0
 26 31  1  0  0  0  0
 27 32  2  0  0  0  0
 29 33  1  0  0  0  0
 30 34  1  0  0  0  0
 31 35  2  0  0  0  0
 33 36  1  0  0  0  0
 35 37  1  0  0  0  0
 36 38  1  0  0  0  0
 38 39  1  0  0  0  0
 39 40  1  0  0  0  0
 40 41  1  0  0  0  0
 41 42  2  0  0  0  0
 41 43  1  0  0  0  0
 43 44  1  0  0  0  0
 11 13  1  0  0  0  0
 13 17  1  0  0  0  0
 15 19  1  0  0  0  0
 25 30  1  0  0  0  0
 32 35  1  0  0  0  0
M  END
>  <MolRegNo>
1950496

>  <m>
=

>  <Value>
71.1

>  <Unit>
nM

>  <Type>
Ki

>  <pValue>
7.15

>  <Ligand Efficiency>
0.22

>  <Binding Efficiency>
11.5

>  <Surface Efficiency>
4.81

>  <Assay Index>
949887

>  <Assay Category>


>  <Assay Organism>
Homo sapiens

>  <Target ID>
19

>  <Target Name>
Estrogen receptor alpha

>  <Target Organism>
Homo sapiens

>  <Target Description>
Target is a single protein chain

>  <Sequence Accession>
P03372

>  <Reference>
J Med Chem 58 (11), 4550-4572 (2015)

>  <Pubmed ID>
25993269

>  <DOI>
10.1021/acs.jmedchem.5b00099

$$$$
1950497
Actelion Java MolfileCreator 1.0

 43 47  0  0  0  0  0  0  0  0999 V2000
    0.0000   -0.0000   -0.0000 S   0  0  0  0  0  0  0  0  0  0  0  0
   -0.0861   -1.2293   -0.0000 O   0  0  0  0  0  0  0  0  0  0  0  0
   -1.1187   -0.5409   -0.0000 O   0  0  0  0  0  0  0  0  0  0  0  0
   -1.3031    0.8605   -0.0000 O   0  0  0  0  0  0  0  0  0  0  0  0
    1.3768    0.7007   -0.0000 C   0  0  0  0  0  0  0  0  0  0  0  0
   -2.7044    0.1844   -0.0000 C   0  0  0  0  0  0  0  0  0  0  0  0
    2.5692   -0.0123   -0.0000 C   0  0  0  0  0  0  0  0  0  0  0  0
    1.3645    2.2742   -0.0000 C   0  0  0  0  0  0  0  0  0  0  0  0
   -4.0075    1.0449   -0.0000 C   0  0  0  0  0  0  0  0  0  0  0  0
   -2.8028   -1.3522   -0.0000 C   0  0  0  0  0  0  0  0  0  0  0  0
    3.1962    1.4629   -0.0000 O   0  0  0  0  0  0  0  0  0  0  0  0
    3.8846    0.7253   -0.0000 C   0  0  0  0  0  0  0  0  0  0  0  0
    2.5569    3.0609   -0.0000 C   0  0  0  0  0  0  0  0  0  0  0  0
   -5.4089    0.3565   -0.0000 C   0  0  0  0  0  0  0  0  0  0  0  0
   -4.2042   -2.0406   -0.0000 C   0  0  0  0  0  0  0  0  0  0  0  0
    5.3720    0.2950   -0.0000 C   0  0  0  0  0  0  0  0  0  0  0  0
    3.8723    2.2988   -0.0000 C   0  0  0  0  0  0  0  0  0  0  0  0
   -5.5072   -1.1801   -0.0000 C   0  0  0  0  0  0  0  0  0  0  0  0
    5.4704   -1.2539   -0.0000 C   0  0  0  0  0  0  0  0  0  0  0  0
    6.6505    1.1555   -0.0000 C   0  0  0  0  0  0  0  0  0  0  0  0
    5.3597    2.7536   -0.0000 C   0  0  0  0  0  0  0  0  0  0  0  0
   -6.9086   -1.8685   -0.0000 N   0  0  0  0  0  0  0  0  0  0  0  0
    6.8472   -1.9177   -0.0000 C   0  0  0  0  0  0  0  0  0  0  0  0
    8.0273    0.4917   -0.0000 C   0  0  0  0  0  0  0  0  0  0  0  0
    5.4581    4.3271   -0.0000 C   0  0  0  0  0  0  0  0  0  0  0  0
    6.6382    1.9177   -0.0000 C   0  0  0  0  0  0  0  0  0  0  0  0
   -7.0070   -3.4051   -0.0000 C   0  0  0  0  0  0  0  0  0  0  0  0
    8.1133   -1.0326   -0.0000 C   0  0  0  0  0  0  0  0  0  0  0  0
    6.8349    5.0155   -0.0000 C   0  0  0  0  0  0  0  0  0  0  0  0
    8.0150    2.6061   -0.0000 C   0  0  0  0  0  0  0  0  0  0  0  0
   -5.9867   -4.0690   -0.0000 O   0  0  0  0  0  0  0  0  0  0  0  0
   -8.4084   -4.0936   -0.0000 C   0  0  0  0  0  0  0  0  0  0  0  0
    9.2197   -1.5612   -0.0000 O   0  0  0  0  0  0  0  0  0  0  0  0
    8.1011    4.1550   -0.0000 C   0  0  0  0  0  0  0  0  0  0  0  0
   -8.5067   -5.6302   -0.0000 C   0  0  0  0  0  0  0  0  0  0  0  0
    9.2074    4.7082   -0.0000 O   0  0  0  0  0  0  0  0  0  0  0  0
   -9.9081   -6.3186   -0.0000 C   0  0  0  0  0  0  0  0  0  0  0  0
  -10.0065   -7.8552   -0.0000 C   0  0  0  0  0  0  0  0  0  0  0  0
  -11.4079   -8.5436   -0.0000 C   0  0  0  0  0  0  0  0  0  0  0  0
  -11.5062  -10.0802   -0.0000 C   0  0  0  0  0  0  0  0  0  0  0  0
  -12.9076  -10.7686   -0.0000 C   0  0  0  0  0  0  0  0  0  0  0  0
  -12.9936  -11.9979   -0.0000 O   0  0  0  0  0  0  0  0  0  0  0  0
  -13.9525  -10.0802   -0.0000 O   0  0  0  0  0  0  0  0  0  0  0  0
  1  2  2  0  0  0  0
  1  3  2  0  0  0  0
  1  4  1  0  0  0  0
  1  5  1  0  0  0  0
  4  6  1  0  0  0  0
  5  7  1  0  0  0  0
  5  8  1  0  0  0  0
  6  9  2  0  0  0  0
  6 10  1  0  0  0  0
  7 11  1  0  0  0  0
  7 12  1  0  0  0  0
  8 13  1  0  0  0  0
  9 14  1  0  0  0  0
 10 15  2  0  0  0  0
 12 16  1  0  0  0  0
 12 17  2  0  0  0  0
 14 18  2  0  0  0  0
 16 19  2  0  0  0  0
 16 20  1  0  0  0  0
 17 21  1  0  0  0  0
 18 22  1  0  0  0  0
 19 23  1  0  0  0  0
 20 24  2  0  0  0  0
 21 25  2  0  0  0  0
 21 26  1  0  0  0  0
 22 27  1  0  0  0  0
 23 28  2  0  0  0  0
 25 29  1  0  0  0  0
 26 30  2  0  0  0  0
 27 31  2  0  0  0  0
 27 32  1  0  0  0  0
 28 33  1  0  0  0  0
 29 34  2  0  0  0  0
 32 35  1  0  0  0  0
 34 36  1  0  0  0  0
 35 37  1  0  0  0  0
 37 38  1  0  0  0  0
 38 39  1  0  0  0  0
 39 40  1  0  0  0  0
 40 41  1  0  0  0  0
 41 42  2  0  0  0  0
 41 43  1  0  0  0  0
 11 13  1  0  0  0  0
 13 17  1  0  0  0  0
 15 18  1  0  0  0  0
 24 28  1  0  0  0  0
 30 34  1  0  0  0  0
M  END
>  <MolRegNo>
1950497

>  <m>
=

>  <Value>
25

>  <Unit>
nM

>  <Type>
Ki

>  <pValue>
7.6

>  <Ligand Efficiency>
0.24

>  <Binding Efficiency>
12.51

>  <Surface Efficiency>
4.77

>  <Assay Index>
949887

>  <Assay Category>


>  <Assay Organism>
Homo sapiens

>  <Target ID>
19

>  <Target Name>
Estrogen receptor alpha

>  <Target Organism>
Homo sapiens

>  <Target Description>
Target is a single protein chain

>  <Sequence Accession>
P03372

>  <Reference>
J Med Chem 58 (11), 4550-4572 (2015)

>  <Pubmed ID>
25993269

>  <DOI>
10.1021/acs.jmedchem.5b00099

$$$$
1950498
Actelion Java MolfileCreator 1.0

 43 47  0  0  0  0  0  0  0  0999 V2000
    0.0000   -0.0000   -0.0000 S   0  0  0  0  0  0  0  0  0  0  0  0
   -0.0859   -1.2273   -0.0000 O   0  0  0  0  0  0  0  0  0  0  0  0
   -1.1168   -0.5400   -0.0000 O   0  0  0  0  0  0  0  0  0  0  0  0
   -1.3009    0.8591   -0.0000 O   0  0  0  0  0  0  0  0  0  0  0  0
    1.3745    0.6995   -0.0000 C   0  0  0  0  0  0  0  0  0  0  0  0
   -2.7000    0.1841   -0.0000 C   0  0  0  0  0  0  0  0  0  0  0  0
    2.5650   -0.0123   -0.0000 C   0  0  0  0  0  0  0  0  0  0  0  0
    1.3623    2.2704   -0.0000 C   0  0  0  0  0  0  0  0  0  0  0  0
   -4.0009    1.0432   -0.0000 C   0  0  0  0  0  0  0  0  0  0  0  0
   -2.7982   -1.3500   -0.0000 C   0  0  0  0  0  0  0  0  0  0  0  0
    3.1909    1.4604   -0.0000 O   0  0  0  0  0  0  0  0  0  0  0  0
    3.8781    0.7241   -0.0000 C   0  0  0  0  0  0  0  0  0  0  0  0
    2.5527    3.0559   -0.0000 C   0  0  0  0  0  0  0  0  0  0  0  0
   -5.4000    0.3559   -0.0000 C   0  0  0  0  0  0  0  0  0  0  0  0
   -4.1972   -2.0373   -0.0000 C   0  0  0  0  0  0  0  0  0  0  0  0
    5.3631    0.2945   -0.0000 C   0  0  0  0  0  0  0  0  0  0  0  0
    3.8659    2.2950   -0.0000 C   0  0  0  0  0  0  0  0  0  0  0  0
   -6.7009    1.2150   -0.0000 N   0  0  0  0  0  0  0  0  0  0  0  0
   -5.4981   -1.1782   -0.0000 C   0  0  0  0  0  0  0  0  0  0  0  0
    5.4613   -1.2518   -0.0000 C   0  0  0  0  0  0  0  0  0  0  0  0
    6.6395    1.1536   -0.0000 C   0  0  0  0  0  0  0  0  0  0  0  0
    5.3509    2.7491   -0.0000 C   0  0  0  0  0  0  0  0  0  0  0  0
   -8.0999    0.5277   -0.0000 C   0  0  0  0  0  0  0  0  0  0  0  0
    6.8359   -1.9145   -0.0000 C   0  0  0  0  0  0  0  0  0  0  0  0
    8.0140    0.4909   -0.0000 C   0  0  0  0  0  0  0  0  0  0  0  0
    5.4490    4.3200   -0.0000 C   0  0  0  0  0  0  0  0  0  0  0  0
    6.6272    1.9145   -0.0000 C   0  0  0  0  0  0  0  0  0  0  0  0
   -8.1858   -0.6995   -0.0000 O   0  0  0  0  0  0  0  0  0  0  0  0
   -9.4008    1.3868   -0.0000 C   0  0  0  0  0  0  0  0  0  0  0  0
    8.0999   -1.0309   -0.0000 C   0  0  0  0  0  0  0  0  0  0  0  0
    6.8236    5.0072   -0.0000 C   0  0  0  0  0  0  0  0  0  0  0  0
    8.0018    2.6018   -0.0000 C   0  0  0  0  0  0  0  0  0  0  0  0
  -10.7999    0.6995   -0.0000 C   0  0  0  0  0  0  0  0  0  0  0  0
    9.2045   -1.5586   -0.0000 O   0  0  0  0  0  0  0  0  0  0  0  0
    8.0877    4.1481   -0.0000 C   0  0  0  0  0  0  0  0  0  0  0  0
  -12.1008    1.5586   -0.0000 C   0  0  0  0  0  0  0  0  0  0  0  0
    9.1922    4.7004   -0.0000 O   0  0  0  0  0  0  0  0  0  0  0  0
  -13.4999    0.8714   -0.0000 C   0  0  0  0  0  0  0  0  0  0  0  0
  -14.8008    1.7304   -0.0000 C   0  0  0  0  0  0  0  0  0  0  0  0
  -16.1999    1.0432   -0.0000 C   0  0  0  0  0  0  0  0  0  0  0  0
  -17.5008    1.9023   -0.0000 C   0  0  0  0  0  0  0  0  0  0  0  0
  -18.6176    1.3623   -0.0000 O   0  0  0  0  0  0  0  0  0  0  0  0
  -17.4394    3.1541   -0.0000 O   0  0  0  0  0  0  0  0  0  0  0  0
  1  2  2  0  0  0  0
  1  3  2  0  0  0  0
  1  4  1  0  0  0  0
  1  5  1  0  0  0  0
  4  6  1  0  0  0  0
  5  7  1  0  0  0  0
  5  8  1  0  0  0  0
  6  9  2  0  0  0  0
  6 10  1  0  0  0  0
  7 11  1  0  0  0  0
  7 12  1  0  0  0  0
  8 13  1  0  0  0  0
  9 14  1  0  0  0  0
 10 15  2  0  0  0  0
 12 16  1  0  0  0  0
 12 17  2  0  0  0  0
 14 18  1  0  0  0  0
 14 19  2  0  0  0  0
 16 20  2  0  0  0  0
 16 21  1  0  0  0  0
 17 22  1  0  0  0  0
 18 23  1  0  0  0  0
 20 24  1  0  0  0  0
 21 25  2  0  0  0  0
 22 26  2  0  0  0  0
 22 27  1  0  0  0  0
 23 28  2  0  0  0  0
 23 29  1  0  0  0  0
 24 30  2  0  0  0  0
 26 31  1  0  0  0  0
 27 32  2  0  0  0  0
 29 33  1  0  0  0  0
 30 34  1  0  0  0  0
 31 35  2  0  0  0  0
 33 36  1  0  0  0  0
 35 37  1  0  0  0  0
 36 38  1  0  0  0  0
 38 39  1  0  0  0  0
 39 40  1  0  0  0  0
 40 41  1  0  0  0  0
 41 42  2  0  0  0  0
 41 43  1  0  0  0  0
 11 13  1  0  0  0  0
 13 17  1  0  0  0  0
 15 19  1  0  0  0  0
 25 30  1  0  0  0  0
 32 35  1  0  0  0  0
M  END
>  <MolRegNo>
1950498

>  <m>
=

>  <Value>
56.57

>  <Unit>
nM

>  <Type>
Ki

>  <pValue>
7.25

>  <Ligand Efficiency>
0.23

>  <Binding Efficiency>
11.93

>  <Surface Efficiency>
4.54

>  <Assay Index>
949887

>  <Assay Category>


>  <Assay Organism>
Homo sapiens

>  <Target ID>
19

>  <Target Name>
Estrogen receptor alpha

>  <Target Organism>
Homo sapiens

>  <Target Description>
Target is a single protein chain

>  <Sequence Accession>
P03372

>  <Reference>
J Med Chem 58 (11), 4550-4572 (2015)

>  <Pubmed ID>
25993269

>  <DOI>
10.1021/acs.jmedchem.5b00099

$$$$
1950499
Actelion Java MolfileCreator 1.0

 44 48  0  0  0  0  0  0  0  0999 V2000
    0.0000   -0.0000   -0.0000 S   0  0  0  0  0  0  0  0  0  0  0  0
   -0.0860   -1.2284   -0.0000 O   0  0  0  0  0  0  0  0  0  0  0  0
   -1.1179   -0.5405   -0.0000 O   0  0  0  0  0  0  0  0  0  0  0  0
   -1.3021    0.8599   -0.0000 O   0  0  0  0  0  0  0  0  0  0  0  0
    1.3759    0.7002   -0.0000 C   0  0  0  0  0  0  0  0  0  0  0  0
   -2.7026    0.1843   -0.0000 C   0  0  0  0  0  0  0  0  0  0  0  0
    2.5674   -0.0123   -0.0000 C   0  0  0  0  0  0  0  0  0  0  0  0
    1.3636    2.2726   -0.0000 C   0  0  0  0  0  0  0  0  0  0  0  0
   -4.0047    1.0442   -0.0000 C   0  0  0  0  0  0  0  0  0  0  0  0
   -2.8008   -1.3513   -0.0000 C   0  0  0  0  0  0  0  0  0  0  0  0
    3.1939    1.4618   -0.0000 O   0  0  0  0  0  0  0  0  0  0  0  0
    3.8819    0.7248   -0.0000 C   0  0  0  0  0  0  0  0  0  0  0  0
    2.5552    3.0588   -0.0000 C   0  0  0  0  0  0  0  0  0  0  0  0
   -5.4051    0.3562   -0.0000 C   0  0  0  0  0  0  0  0  0  0  0  0
   -4.2013   -2.0392   -0.0000 C   0  0  0  0  0  0  0  0  0  0  0  0
    5.3683    0.2948   -0.0000 C   0  0  0  0  0  0  0  0  0  0  0  0
    3.8696    2.2972   -0.0000 C   0  0  0  0  0  0  0  0  0  0  0  0
   -5.5034   -1.1793   -0.0000 C   0  0  0  0  0  0  0  0  0  0  0  0
    5.4666   -1.2530   -0.0000 C   0  0  0  0  0  0  0  0  0  0  0  0
    6.6459    1.1547   -0.0000 C   0  0  0  0  0  0  0  0  0  0  0  0
    5.3560    2.7517   -0.0000 C   0  0  0  0  0  0  0  0  0  0  0  0
   -6.9038   -1.8672   -0.0000 N   0  0  0  0  0  0  0  0  0  0  0  0
    6.8424   -1.9164   -0.0000 C   0  0  0  0  0  0  0  0  0  0  0  0
    8.0217    0.4914   -0.0000 C   0  0  0  0  0  0  0  0  0  0  0  0
    5.4543    4.3241   -0.0000 C   0  0  0  0  0  0  0  0  0  0  0  0
    6.6336    1.9164   -0.0000 C   0  0  0  0  0  0  0  0  0  0  0  0
   -7.0021   -3.4028   -0.0000 C   0  0  0  0  0  0  0  0  0  0  0  0
    8.1077   -1.0319   -0.0000 C   0  0  0  0  0  0  0  0  0  0  0  0
    6.8301    5.0120   -0.0000 C   0  0  0  0  0  0  0  0  0  0  0  0
    8.0094    2.6043   -0.0000 C   0  0  0  0  0  0  0  0  0  0  0  0
   -5.9825   -4.0661   -0.0000 O   0  0  0  0  0  0  0  0  0  0  0  0
   -8.4025   -4.0907   -0.0000 C   0  0  0  0  0  0  0  0  0  0  0  0
    9.2133   -1.5601   -0.0000 O   0  0  0  0  0  0  0  0  0  0  0  0
    8.0954    4.1521   -0.0000 C   0  0  0  0  0  0  0  0  0  0  0  0
   -8.5008   -5.6263   -0.0000 C   0  0  0  0  0  0  0  0  0  0  0  0
    9.2010    4.7049   -0.0000 O   0  0  0  0  0  0  0  0  0  0  0  0
   -9.9012   -6.3142   -0.0000 C   0  0  0  0  0  0  0  0  0  0  0  0
   -9.9995   -7.8497   -0.0000 C   0  0  0  0  0  0  0  0  0  0  0  0
  -11.3999   -8.5377   -0.0000 C   0  0  0  0  0  0  0  0  0  0  0  0
  -11.4982  -10.0732   -0.0000 C   0  0  0  0  0  0  0  0  0  0  0  0
  -12.8986  -10.7611   -0.0000 C   0  0  0  0  0  0  0  0  0  0  0  0
  -13.9428  -10.0732   -0.0000 O   0  0  0  0  0  0  0  0  0  0  0  0
  -12.9969  -12.2967   -0.0000 N   0  0  0  0  0  0  0  0  0  0  0  0
  -14.1148  -12.8372   -0.0000 O   0  0  0  0  0  0  0  0  0  0  0  0
  1  2  2  0  0  0  0
  1  3  2  0  0  0  0
  1  4  1  0  0  0  0
  1  5  1  0  0  0  0
  4  6  1  0  0  0  0
  5  7  1  0  0  0  0
  5  8  1  0  0  0  0
  6  9  2  0  0  0  0
  6 10  1  0  0  0  0
  7 11  1  0  0  0  0
  7 12  1  0  0  0  0
  8 13  1  0  0  0  0
  9 14  1  0  0  0  0
 10 15  2  0  0  0  0
 12 16  1  0  0  0  0
 12 17  2  0  0  0  0
 14 18  2  0  0  0  0
 16 19  2  0  0  0  0
 16 20  1  0  0  0  0
 17 21  1  0  0  0  0
 18 22  1  0  0  0  0
 19 23  1  0  0  0  0
 20 24  2  0  0  0  0
 21 25  2  0  0  0  0
 21 26  1  0  0  0  0
 22 27  1  0  0  0  0
 23 28  2  0  0  0  0
 25 29  1  0  0  0  0
 26 30  2  0  0  0  0
 27 31  2  0  0  0  0
 27 32  1  0  0  0  0
 28 33  1  0  0  0  0
 29 34  2  0  0  0  0
 32 35  1  0  0  0  0
 34 36  1  0  0  0  0
 35 37  1  0  0  0  0
 37 38  1  0  0  0  0
 38 39  1  0  0  0  0
 39 40  1  0  0  0  0
 40 41  1  0  0  0  0
 41 42  2  0  0  0  0
 41 43  1  0  0  0  0
 43 44  1  0  0  0  0
 11 13  1  0  0  0  0
 13 17  1  0  0  0  0
 15 18  1  0  0  0  0
 24 28  1  0  0  0  0
 30 34  1  0  0  0  0
M  END
>  <MolRegNo>
1950499

>  <m>
=

>  <Value>
147.62

>  <Unit>
nM

>  <Type>
Ki

>  <pValue>
6.83

>  <Ligand Efficiency>
0.21

>  <Binding Efficiency>
10.97

>  <Surface Efficiency>
3.98

>  <Assay Index>
949887

>  <Assay Category>


>  <Assay Organism>
Homo sapiens

>  <Target ID>
19

>  <Target Name>
Estrogen receptor alpha

>  <Target Organism>
Homo sapiens

>  <Target Description>
Target is a single protein chain

>  <Sequence Accession>
P03372

>  <Reference>
J Med Chem 58 (11), 4550-4572 (2015)

>  <Pubmed ID>
25993269

>  <DOI>
10.1021/acs.jmedchem.5b00099

$$$$
1950500
Actelion Java MolfileCreator 1.0

 42 46  0  0  0  0  0  0  0  0999 V2000
    0.0000   -0.0000   -0.0000 S   0  0  0  0  0  0  0  0  0  0  0  0
   -0.0859   -1.2266   -0.0000 O   0  0  0  0  0  0  0  0  0  0  0  0
   -1.1162   -0.5397   -0.0000 O   0  0  0  0  0  0  0  0  0  0  0  0
   -1.3002    0.8586   -0.0000 O   0  0  0  0  0  0  0  0  0  0  0  0
    1.3738    0.6991   -0.0000 C   0  0  0  0  0  0  0  0  0  0  0  0
   -2.6985    0.1840   -0.0000 C   0  0  0  0  0  0  0  0  0  0  0  0
    2.5635   -0.0123   -0.0000 C   0  0  0  0  0  0  0  0  0  0  0  0
    1.3615    2.2692   -0.0000 C   0  0  0  0  0  0  0  0  0  0  0  0
   -3.9986    1.0426   -0.0000 C   0  0  0  0  0  0  0  0  0  0  0  0
   -2.7966   -1.3492   -0.0000 C   0  0  0  0  0  0  0  0  0  0  0  0
    3.1891    1.4596   -0.0000 O   0  0  0  0  0  0  0  0  0  0  0  0
    3.8760    0.7237   -0.0000 C   0  0  0  0  0  0  0  0  0  0  0  0
    2.5513    3.0542   -0.0000 C   0  0  0  0  0  0  0  0  0  0  0  0
   -5.3969    0.3557   -0.0000 C   0  0  0  0  0  0  0  0  0  0  0  0
   -4.1949   -2.0361   -0.0000 C   0  0  0  0  0  0  0  0  0  0  0  0
    5.3601    0.2944   -0.0000 C   0  0  0  0  0  0  0  0  0  0  0  0
    3.8637    2.2937   -0.0000 C   0  0  0  0  0  0  0  0  0  0  0  0
   -5.4951   -1.1775   -0.0000 C   0  0  0  0  0  0  0  0  0  0  0  0
    5.4583   -1.2511   -0.0000 C   0  0  0  0  0  0  0  0  0  0  0  0
    6.6358    1.1530   -0.0000 C   0  0  0  0  0  0  0  0  0  0  0  0
    5.3479    2.7475   -0.0000 C   0  0  0  0  0  0  0  0  0  0  0  0
    6.8320   -1.9135   -0.0000 C   0  0  0  0  0  0  0  0  0  0  0  0
    8.0095    0.4906   -0.0000 C   0  0  0  0  0  0  0  0  0  0  0  0
    5.4460    4.3175   -0.0000 C   0  0  0  0  0  0  0  0  0  0  0  0
    6.6235    1.9135   -0.0000 C   0  0  0  0  0  0  0  0  0  0  0  0
    8.0954   -1.0303   -0.0000 C   0  0  0  0  0  0  0  0  0  0  0  0
    6.8198    5.0044   -0.0000 C   0  0  0  0  0  0  0  0  0  0  0  0
    7.9973    2.6003   -0.0000 C   0  0  0  0  0  0  0  0  0  0  0  0
    9.4692   -1.6927   -0.0000 N   0  0  0  0  0  0  0  0  0  0  0  0
    8.0831    4.1458   -0.0000 C   0  0  0  0  0  0  0  0  0  0  0  0
   10.7325   -0.8095   -0.0000 C   0  0  0  0  0  0  0  0  0  0  0  0
    9.1870    4.6978   -0.0000 O   0  0  0  0  0  0  0  0  0  0  0  0
   10.6344    0.4416   -0.0000 O   0  0  0  0  0  0  0  0  0  0  0  0
   12.1063   -1.4719   -0.0000 C   0  0  0  0  0  0  0  0  0  0  0  0
   13.3697   -0.5888   -0.0000 C   0  0  0  0  0  0  0  0  0  0  0  0
   14.7434   -1.2511   -0.0000 C   0  0  0  0  0  0  0  0  0  0  0  0
   16.0068   -0.3680   -0.0000 C   0  0  0  0  0  0  0  0  0  0  0  0
   17.3806   -1.0303   -0.0000 C   0  0  0  0  0  0  0  0  0  0  0  0
   18.6439   -0.1472   -0.0000 C   0  0  0  0  0  0  0  0  0  0  0  0
   20.0177   -0.8095   -0.0000 C   0  0  0  0  0  0  0  0  0  0  0  0
   21.0235   -0.0981   -0.0000 O   0  0  0  0  0  0  0  0  0  0  0  0
   20.0913   -2.0361   -0.0000 O   0  0  0  0  0  0  0  0  0  0  0  0
  1  2  2  0  0  0  0
  1  3  2  0  0  0  0
  1  4  1  0  0  0  0
  1  5  1  0  0  0  0
  4  6  1  0  0  0  0
  5  7  1  0  0  0  0
  5  8  1  0  0  0  0
  6  9  2  0  0  0  0
  6 10  1  0  0  0  0
  7 11  1  0  0  0  0
  7 12  1  0  0  0  0
  8 13  1  0  0  0  0
  9 14  1  0  0  0  0
 10 15  2  0  0  0  0
 12 16  1  0  0  0  0
 12 17  2  0  0  0  0
 14 18  2  0  0  0  0
 16 19  2  0  0  0  0
 16 20  1  0  0  0  0
 17 21  1  0  0  0  0
 19 22  1  0  0  0  0
 20 23  2  0  0  0  0
 21 24  2  0  0  0  0
 21 25  1  0  0  0  0
 22 26  2  0  0  0  0
 24 27  1  0  0  0  0
 25 28  2  0  0  0  0
 26 29  1  0  0  0  0
 27 30  2  0  0  0  0
 29 31  1  0  0  0  0
 30 32  1  0  0  0  0
 31 33  2  0  0  0  0
 31 34  1  0  0  0  0
 34 35  1  0  0  0  0
 35 36  1  0  0  0  0
 36 37  1  0  0  0  0
 37 38  1  0  0  0  0
 38 39  1  0  0  0  0
 39 40  1  0  0  0  0
 40 41  2  0  0  0  0
 40 42  1  0  0  0  0
 11 13  1  0  0  0  0
 13 17  1  0  0  0  0
 15 18  1  0  0  0  0
 23 26  1  0  0  0  0
 28 30  1  0  0  0  0
M  END
>  <MolRegNo>
1950500

>  <m>
=

>  <Value>
111.91

>  <Unit>
nM

>  <Type>
Ki

>  <pValue>
6.95

>  <Ligand Efficiency>
0.23

>  <Binding Efficiency>
11.75

>  <Surface Efficiency>
4.99

>  <Assay Index>
949887

>  <Assay Category>


>  <Assay Organism>
Homo sapiens

>  <Target ID>
19

>  <Target Name>
Estrogen receptor alpha

>  <Target Organism>
Homo sapiens

>  <Target Description>
Target is a single protein chain

>  <Sequence Accession>
P03372

>  <Reference>
J Med Chem 58 (11), 4550-4572 (2015)

>  <Pubmed ID>
25993269

>  <DOI>
10.1021/acs.jmedchem.5b00099

$$$$
1950501
Actelion Java MolfileCreator 1.0

 43 47  0  0  0  0  0  0  0  0999 V2000
    0.0000   -0.0000   -0.0000 S   0  0  0  0  0  0  0  0  0  0  0  0
   -0.0862   -1.2311   -0.0000 O   0  0  0  0  0  0  0  0  0  0  0  0
   -1.1203   -0.5417   -0.0000 O   0  0  0  0  0  0  0  0  0  0  0  0
   -1.3050    0.8618   -0.0000 O   0  0  0  0  0  0  0  0  0  0  0  0
    1.3789    0.7017   -0.0000 C   0  0  0  0  0  0  0  0  0  0  0  0
   -2.7085    0.1847   -0.0000 C   0  0  0  0  0  0  0  0  0  0  0  0
    2.5730   -0.0123   -0.0000 C   0  0  0  0  0  0  0  0  0  0  0  0
    1.3665    2.2776   -0.0000 C   0  0  0  0  0  0  0  0  0  0  0  0
   -4.0134    1.0465   -0.0000 C   0  0  0  0  0  0  0  0  0  0  0  0
   -2.8070   -1.3542   -0.0000 C   0  0  0  0  0  0  0  0  0  0  0  0
    3.2009    1.4650   -0.0000 O   0  0  0  0  0  0  0  0  0  0  0  0
    3.8903    0.7264   -0.0000 C   0  0  0  0  0  0  0  0  0  0  0  0
    2.5607    3.0655   -0.0000 C   0  0  0  0  0  0  0  0  0  0  0  0
   -5.4169    0.3570   -0.0000 C   0  0  0  0  0  0  0  0  0  0  0  0
   -4.2104   -2.0437   -0.0000 C   0  0  0  0  0  0  0  0  0  0  0  0
    5.3800    0.2955   -0.0000 C   0  0  0  0  0  0  0  0  0  0  0  0
    3.8780    2.3022   -0.0000 C   0  0  0  0  0  0  0  0  0  0  0  0
   -5.5154   -1.1819   -0.0000 C   0  0  0  0  0  0  0  0  0  0  0  0
    5.4785   -1.2557   -0.0000 C   0  0  0  0  0  0  0  0  0  0  0  0
    6.6604    1.1573   -0.0000 C   0  0  0  0  0  0  0  0  0  0  0  0
    5.3677    2.7577   -0.0000 C   0  0  0  0  0  0  0  0  0  0  0  0
   -6.6357   -1.7236   -0.0000 C   0  0  0  0  0  0  0  0  0  0  0  0
    6.8573   -1.9205   -0.0000 C   0  0  0  0  0  0  0  0  0  0  0  0
    8.0392    0.4924   -0.0000 C   0  0  0  0  0  0  0  0  0  0  0  0
    5.4662    4.3335   -0.0000 C   0  0  0  0  0  0  0  0  0  0  0  0
    6.6480    1.9205   -0.0000 C   0  0  0  0  0  0  0  0  0  0  0  0
    8.1254   -1.0341   -0.0000 C   0  0  0  0  0  0  0  0  0  0  0  0
    6.8450    5.0230   -0.0000 C   0  0  0  0  0  0  0  0  0  0  0  0
    8.0269    2.6100   -0.0000 C   0  0  0  0  0  0  0  0  0  0  0  0
    9.5042   -1.6989   -0.0000 N   0  0  0  0  0  0  0  0  0  0  0  0
    8.1131    4.1612   -0.0000 C   0  0  0  0  0  0  0  0  0  0  0  0
   10.7723   -0.8125   -0.0000 C   0  0  0  0  0  0  0  0  0  0  0  0
    9.2211    4.7152   -0.0000 O   0  0  0  0  0  0  0  0  0  0  0  0
   10.6738    0.4432   -0.0000 O   0  0  0  0  0  0  0  0  0  0  0  0
   12.1511   -1.4773   -0.0000 C   0  0  0  0  0  0  0  0  0  0  0  0
   13.4192   -0.5909   -0.0000 C   0  0  0  0  0  0  0  0  0  0  0  0
   14.7980   -1.2557   -0.0000 C   0  0  0  0  0  0  0  0  0  0  0  0
   16.0661   -0.3693   -0.0000 C   0  0  0  0  0  0  0  0  0  0  0  0
   17.4450   -1.0341   -0.0000 C   0  0  0  0  0  0  0  0  0  0  0  0
   18.7130   -0.1477   -0.0000 C   0  0  0  0  0  0  0  0  0  0  0  0
   20.0919   -0.8125   -0.0000 C   0  0  0  0  0  0  0  0  0  0  0  0
   21.1014   -0.0985   -0.0000 O   0  0  0  0  0  0  0  0  0  0  0  0
   20.1657   -2.0437   -0.0000 O   0  0  0  0  0  0  0  0  0  0  0  0
  1  2  2  0  0  0  0
  1  3  2  0  0  0  0
  1  4  1  0  0  0  0
  1  5  1  0  0  0  0
  4  6  1  0  0  0  0
  5  7  1  0  0  0  0
  5  8  1  0  0  0  0
  6  9  2  0  0  0  0
  6 10  1  0  0  0  0
  7 11  1  0  0  0  0
  7 12  1  0  0  0  0
  8 13  1  0  0  0  0
  9 14  1  0  0  0  0
 10 15  2  0  0  0  0
 12 16  1  0  0  0  0
 12 17  2  0  0  0  0
 14 18  2  0  0  0  0
 16 19  2  0  0  0  0
 16 20  1  0  0  0  0
 17 21  1  0  0  0  0
 18 22  1  0  0  0  0
 19 23  1  0  0  0  0
 20 24  2  0  0  0  0
 21 25  2  0  0  0  0
 21 26  1  0  0  0  0
 23 27  2  0  0  0  0
 25 28  1  0  0  0  0
 26 29  2  0  0  0  0
 27 30  1  0  0  0  0
 28 31  2  0  0  0  0
 30 32  1  0  0  0  0
 31 33  1  0  0  0  0
 32 34  2  0  0  0  0
 32 35  1  0  0  0  0
 35 36  1  0  0  0  0
 36 37  1  0  0  0  0
 37 38  1  0  0  0  0
 38 39  1  0  0  0  0
 39 40  1  0  0  0  0
 40 41  1  0  0  0  0
 41 42  2  0  0  0  0
 41 43  1  0  0  0  0
 11 13  1  0  0  0  0
 13 17  1  0  0  0  0
 15 18  1  0  0  0  0
 24 27  1  0  0  0  0
 29 31  1  0  0  0  0
M  END
>  <MolRegNo>
1950501

>  <m>
=

>  <Value>
182.35

>  <Unit>
nM

>  <Type>
Ki

>  <pValue>
6.74

>  <Ligand Efficiency>
0.21

>  <Binding Efficiency>
11.13

>  <Surface Efficiency>
4.84

>  <Assay Index>
949887

>  <Assay Category>


>  <Assay Organism>
Homo sapiens

>  <Target ID>
19

>  <Target Name>
Estrogen receptor alpha

>  <Target Organism>
Homo sapiens

>  <Target Description>
Target is a single protein chain

>  <Sequence Accession>
P03372

>  <Reference>
J Med Chem 58 (11), 4550-4572 (2015)

>  <Pubmed ID>
25993269

>  <DOI>
10.1021/acs.jmedchem.5b00099

$$$$
1950502
Actelion Java MolfileCreator 1.0

 43 47  0  0  0  0  0  0  0  0999 V2000
    0.0000   -0.0000   -0.0000 S   0  0  0  0  0  0  0  0  0  0  0  0
   -0.0862   -1.2313   -0.0000 O   0  0  0  0  0  0  0  0  0  0  0  0
   -1.1205   -0.5418   -0.0000 O   0  0  0  0  0  0  0  0  0  0  0  0
   -1.3052    0.8619   -0.0000 O   0  0  0  0  0  0  0  0  0  0  0  0
    1.3791    0.7018   -0.0000 C   0  0  0  0  0  0  0  0  0  0  0  0
   -2.7089    0.1847   -0.0000 C   0  0  0  0  0  0  0  0  0  0  0  0
    2.5734   -0.0123   -0.0000 C   0  0  0  0  0  0  0  0  0  0  0  0
    1.3667    2.2779   -0.0000 C   0  0  0  0  0  0  0  0  0  0  0  0
   -2.8074   -1.3544   -0.0000 C   0  0  0  0  0  0  0  0  0  0  0  0
   -4.0140    1.0466   -0.0000 C   0  0  0  0  0  0  0  0  0  0  0  0
    3.2014    1.4652   -0.0000 O   0  0  0  0  0  0  0  0  0  0  0  0
    3.8909    0.7265   -0.0000 C   0  0  0  0  0  0  0  0  0  0  0  0
    2.5611    3.0659   -0.0000 C   0  0  0  0  0  0  0  0  0  0  0  0
   -4.2110   -2.0440   -0.0000 C   0  0  0  0  0  0  0  0  0  0  0  0
   -5.4177    0.3571   -0.0000 C   0  0  0  0  0  0  0  0  0  0  0  0
    5.3808    0.2955   -0.0000 C   0  0  0  0  0  0  0  0  0  0  0  0
    3.8786    2.3025   -0.0000 C   0  0  0  0  0  0  0  0  0  0  0  0
   -5.5162   -1.1820   -0.0000 C   0  0  0  0  0  0  0  0  0  0  0  0
   -4.2972   -3.2753   -0.0000 C   0  0  0  0  0  0  0  0  0  0  0  0
    5.4793   -1.2559   -0.0000 C   0  0  0  0  0  0  0  0  0  0  0  0
    6.6613    1.1574   -0.0000 C   0  0  0  0  0  0  0  0  0  0  0  0
    5.3685    2.7581   -0.0000 C   0  0  0  0  0  0  0  0  0  0  0  0
    6.8583   -1.9208   -0.0000 C   0  0  0  0  0  0  0  0  0  0  0  0
    8.0404    0.4925   -0.0000 C   0  0  0  0  0  0  0  0  0  0  0  0
    5.4670    4.3342   -0.0000 C   0  0  0  0  0  0  0  0  0  0  0  0
    6.6490    1.9208   -0.0000 C   0  0  0  0  0  0  0  0  0  0  0  0
    8.1266   -1.0343   -0.0000 C   0  0  0  0  0  0  0  0  0  0  0  0
    6.8460    5.0237   -0.0000 C   0  0  0  0  0  0  0  0  0  0  0  0
    8.0281    2.6104   -0.0000 C   0  0  0  0  0  0  0  0  0  0  0  0
    9.5056   -1.6992   -0.0000 N   0  0  0  0  0  0  0  0  0  0  0  0
    8.1143    4.1618   -0.0000 C   0  0  0  0  0  0  0  0  0  0  0  0
   10.7739   -0.8127   -0.0000 C   0  0  0  0  0  0  0  0  0  0  0  0
    9.2224    4.7159   -0.0000 O   0  0  0  0  0  0  0  0  0  0  0  0
   10.6754    0.4433   -0.0000 O   0  0  0  0  0  0  0  0  0  0  0  0
   12.1529   -1.4776   -0.0000 C   0  0  0  0  0  0  0  0  0  0  0  0
   13.4211   -0.5910   -0.0000 C   0  0  0  0  0  0  0  0  0  0  0  0
   14.8002   -1.2559   -0.0000 C   0  0  0  0  0  0  0  0  0  0  0  0
   16.0684   -0.3694   -0.0000 C   0  0  0  0  0  0  0  0  0  0  0  0
   17.4475   -1.0343   -0.0000 C   0  0  0  0  0  0  0  0  0  0  0  0
   18.7157   -0.1478   -0.0000 C   0  0  0  0  0  0  0  0  0  0  0  0
   20.0948   -0.8127   -0.0000 C   0  0  0  0  0  0  0  0  0  0  0  0
   21.1044   -0.0985   -0.0000 O   0  0  0  0  0  0  0  0  0  0  0  0
   20.1687   -2.0440   -0.0000 O   0  0  0  0  0  0  0  0  0  0  0  0
  1  2  2  0  0  0  0
  1  3  2  0  0  0  0
  1  4  1  0  0  0  0
  1  5  1  0  0  0  0
  4  6  1  0  0  0  0
  5  7  1  0  0  0  0
  5  8  1  0  0  0  0
  6  9  2  0  0  0  0
  6 10  1  0  0  0  0
  7 11  1  0  0  0  0
  7 12  1  0  0  0  0
  8 13  1  0  0  0  0
  9 14  1  0  0  0  0
 10 15  2  0  0  0  0
 12 16  1  0  0  0  0
 12 17  2  0  0  0  0
 14 18  2  0  0  0  0
 14 19  1  0  0  0  0
 16 20  2  0  0  0  0
 16 21  1  0  0  0  0
 17 22  1  0  0  0  0
 20 23  1  0  0  0  0
 21 24  2  0  0  0  0
 22 25  2  0  0  0  0
 22 26  1  0  0  0  0
 23 27  2  0  0  0  0
 25 28  1  0  0  0  0
 26 29  2  0  0  0  0
 27 30  1  0  0  0  0
 28 31  2  0  0  0  0
 30 32  1  0  0  0  0
 31 33  1  0  0  0  0
 32 34  2  0  0  0  0
 32 35  1  0  0  0  0
 35 36  1  0  0  0  0
 36 37  1  0  0  0  0
 37 38  1  0  0  0  0
 38 39  1  0  0  0  0
 39 40  1  0  0  0  0
 40 41  1  0  0  0  0
 41 42  2  0  0  0  0
 41 43  1  0  0  0  0
 11 13  1  0  0  0  0
 13 17  1  0  0  0  0
 15 18  1  0  0  0  0
 24 27  1  0  0  0  0
 29 31  1  0  0  0  0
M  END
>  <MolRegNo>
1950502

>  <m>
=

>  <Value>
80.52

>  <Unit>
nM

>  <Type>
Ki

>  <pValue>
7.09

>  <Ligand Efficiency>
0.23

>  <Binding Efficiency>
11.71

>  <Surface Efficiency>
5.1

>  <Assay Index>
949887

>  <Assay Category>


>  <Assay Organism>
Homo sapiens

>  <Target ID>
19

>  <Target Name>
Estrogen receptor alpha

>  <Target Organism>
Homo sapiens

>  <Target Description>
Target is a single protein chain

>  <Sequence Accession>
P03372

>  <Reference>
J Med Chem 58 (11), 4550-4572 (2015)

>  <Pubmed ID>
25993269

>  <DOI>
10.1021/acs.jmedchem.5b00099

$$$$
1950503
Actelion Java MolfileCreator 1.0

 44 48  0  0  0  0  0  0  0  0999 V2000
    0.0000   -0.0000   -0.0000 S   0  0  0  0  0  0  0  0  0  0  0  0
   -0.0861   -1.2302   -0.0000 O   0  0  0  0  0  0  0  0  0  0  0  0
   -1.1195   -0.5413   -0.0000 O   0  0  0  0  0  0  0  0  0  0  0  0
   -1.3040    0.8611   -0.0000 O   0  0  0  0  0  0  0  0  0  0  0  0
    1.3778    0.7012   -0.0000 C   0  0  0  0  0  0  0  0  0  0  0  0
   -2.7065    0.1845   -0.0000 C   0  0  0  0  0  0  0  0  0  0  0  0
    2.5711   -0.0123   -0.0000 C   0  0  0  0  0  0  0  0  0  0  0  0
    1.3655    2.2759   -0.0000 C   0  0  0  0  0  0  0  0  0  0  0  0
   -4.0105    1.0457   -0.0000 C   0  0  0  0  0  0  0  0  0  0  0  0
   -2.8049   -1.3532   -0.0000 C   0  0  0  0  0  0  0  0  0  0  0  0
    3.1985    1.4639   -0.0000 O   0  0  0  0  0  0  0  0  0  0  0  0
    3.8875    0.7258   -0.0000 C   0  0  0  0  0  0  0  0  0  0  0  0
    2.5588    3.0632   -0.0000 C   0  0  0  0  0  0  0  0  0  0  0  0
   -5.4129    0.3568   -0.0000 C   0  0  0  0  0  0  0  0  0  0  0  0
   -4.2073   -2.0421   -0.0000 C   0  0  0  0  0  0  0  0  0  0  0  0
    5.3760    0.2952   -0.0000 C   0  0  0  0  0  0  0  0  0  0  0  0
    3.8752    2.3005   -0.0000 C   0  0  0  0  0  0  0  0  0  0  0  0
   -5.5113   -1.1810   -0.0000 C   0  0  0  0  0  0  0  0  0  0  0  0
    5.4744   -1.2548   -0.0000 C   0  0  0  0  0  0  0  0  0  0  0  0
    6.6554    1.1564   -0.0000 C   0  0  0  0  0  0  0  0  0  0  0  0
    5.3637    2.7557   -0.0000 C   0  0  0  0  0  0  0  0  0  0  0  0
   -6.9138   -1.8699   -0.0000 O   0  0  0  0  0  0  0  0  0  0  0  0
    6.8522   -1.9191   -0.0000 C   0  0  0  0  0  0  0  0  0  0  0  0
    8.0332    0.4921   -0.0000 C   0  0  0  0  0  0  0  0  0  0  0  0
    5.4621    4.3303   -0.0000 C   0  0  0  0  0  0  0  0  0  0  0  0
    6.6431    1.9191   -0.0000 C   0  0  0  0  0  0  0  0  0  0  0  0
   -6.9999   -3.1001   -0.0000 C   0  0  0  0  0  0  0  0  0  0  0  0
    8.1194   -1.0334   -0.0000 C   0  0  0  0  0  0  0  0  0  0  0  0
    6.8399    5.0192   -0.0000 C   0  0  0  0  0  0  0  0  0  0  0  0
    8.0209    2.6080   -0.0000 C   0  0  0  0  0  0  0  0  0  0  0  0
    9.4972   -1.6977   -0.0000 N   0  0  0  0  0  0  0  0  0  0  0  0
    8.1071    4.1581   -0.0000 C   0  0  0  0  0  0  0  0  0  0  0  0
   10.7643   -0.8119   -0.0000 C   0  0  0  0  0  0  0  0  0  0  0  0
    9.2142    4.7117   -0.0000 O   0  0  0  0  0  0  0  0  0  0  0  0
   10.6659    0.4429   -0.0000 O   0  0  0  0  0  0  0  0  0  0  0  0
   12.1421   -1.4762   -0.0000 C   0  0  0  0  0  0  0  0  0  0  0  0
   13.4092   -0.5905   -0.0000 C   0  0  0  0  0  0  0  0  0  0  0  0
   14.7871   -1.2548   -0.0000 C   0  0  0  0  0  0  0  0  0  0  0  0
   16.0542   -0.3691   -0.0000 C   0  0  0  0  0  0  0  0  0  0  0  0
   17.4320   -1.0334   -0.0000 C   0  0  0  0  0  0  0  0  0  0  0  0
   18.6991   -0.1476   -0.0000 C   0  0  0  0  0  0  0  0  0  0  0  0
   20.0770   -0.8119   -0.0000 C   0  0  0  0  0  0  0  0  0  0  0  0
   21.0857   -0.0984   -0.0000 O   0  0  0  0  0  0  0  0  0  0  0  0
   20.1508   -2.0421   -0.0000 O   0  0  0  0  0  0  0  0  0  0  0  0
  1  2  2  0  0  0  0
  1  3  2  0  0  0  0
  1  4  1  0  0  0  0
  1  5  1  0  0  0  0
  4  6  1  0  0  0  0
  5  7  1  0  0  0  0
  5  8  1  0  0  0  0
  6  9  2  0  0  0  0
  6 10  1  0  0  0  0
  7 11  1  0  0  0  0
  7 12  1  0  0  0  0
  8 13  1  0  0  0  0
  9 14  1  0  0  0  0
 10 15  2  0  0  0  0
 12 16  1  0  0  0  0
 12 17  2  0  0  0  0
 14 18  2  0  0  0  0
 16 19  2  0  0  0  0
 16 20  1  0  0  0  0
 17 21  1  0  0  0  0
 18 22  1  0  0  0  0
 19 23  1  0  0  0  0
 20 24  2  0  0  0  0
 21 25  2  0  0  0  0
 21 26  1  0  0  0  0
 22 27  1  0  0  0  0
 23 28  2  0  0  0  0
 25 29  1  0  0  0  0
 26 30  2  0  0  0  0
 28 31  1  0  0  0  0
 29 32  2  0  0  0  0
 31 33  1  0  0  0  0
 32 34  1  0  0  0  0
 33 35  2  0  0  0  0
 33 36  1  0  0  0  0
 36 37  1  0  0  0  0
 37 38  1  0  0  0  0
 38 39  1  0  0  0  0
 39 40  1  0  0  0  0
 40 41  1  0  0  0  0
 41 42  1  0  0  0  0
 42 43  2  0  0  0  0
 42 44  1  0  0  0  0
 11 13  1  0  0  0  0
 13 17  1  0  0  0  0
 15 18  1  0  0  0  0
 24 28  1  0  0  0  0
 30 32  1  0  0  0  0
M  END
>  <MolRegNo>
1950503

>  <m>
=

>  <Value>
2384.6

>  <Unit>
nM

>  <Type>
Ki

>  <pValue>
5.62

>  <Ligand Efficiency>
0.17

>  <Binding Efficiency>
9.04

>  <Surface Efficiency>
3.79

>  <Assay Index>
949887

>  <Assay Category>


>  <Assay Organism>
Homo sapiens

>  <Target ID>
19

>  <Target Name>
Estrogen receptor alpha

>  <Target Organism>
Homo sapiens

>  <Target Description>
Target is a single protein chain

>  <Sequence Accession>
P03372

>  <Reference>
J Med Chem 58 (11), 4550-4572 (2015)

>  <Pubmed ID>
25993269

>  <DOI>
10.1021/acs.jmedchem.5b00099

$$$$
1950504
Actelion Java MolfileCreator 1.0

 44 48  0  0  0  0  0  0  0  0999 V2000
    0.0000   -0.0000   -0.0000 S   0  0  0  0  0  0  0  0  0  0  0  0
   -0.0862   -1.2308   -0.0000 O   0  0  0  0  0  0  0  0  0  0  0  0
   -1.1201   -0.5416   -0.0000 O   0  0  0  0  0  0  0  0  0  0  0  0
   -1.3047    0.8616   -0.0000 O   0  0  0  0  0  0  0  0  0  0  0  0
    1.3785    0.7016   -0.0000 C   0  0  0  0  0  0  0  0  0  0  0  0
   -2.7078    0.1846   -0.0000 C   0  0  0  0  0  0  0  0  0  0  0  0
    2.5724   -0.0123   -0.0000 C   0  0  0  0  0  0  0  0  0  0  0  0
    1.3662    2.2770   -0.0000 C   0  0  0  0  0  0  0  0  0  0  0  0
   -2.8063   -1.3539   -0.0000 C   0  0  0  0  0  0  0  0  0  0  0  0
   -4.0125    1.0462   -0.0000 C   0  0  0  0  0  0  0  0  0  0  0  0
    3.2002    1.4647   -0.0000 O   0  0  0  0  0  0  0  0  0  0  0  0
    3.8894    0.7262   -0.0000 C   0  0  0  0  0  0  0  0  0  0  0  0
    2.5601    3.0648   -0.0000 C   0  0  0  0  0  0  0  0  0  0  0  0
   -4.2094   -2.0432   -0.0000 C   0  0  0  0  0  0  0  0  0  0  0  0
   -5.4157    0.3569   -0.0000 C   0  0  0  0  0  0  0  0  0  0  0  0
    5.3787    0.2954   -0.0000 C   0  0  0  0  0  0  0  0  0  0  0  0
    3.8771    2.3017   -0.0000 C   0  0  0  0  0  0  0  0  0  0  0  0
   -4.3079   -3.5817   -0.0000 O   0  0  0  0  0  0  0  0  0  0  0  0
   -5.5141   -1.1816   -0.0000 C   0  0  0  0  0  0  0  0  0  0  0  0
    5.4772   -1.2554   -0.0000 C   0  0  0  0  0  0  0  0  0  0  0  0
    6.6588    1.1570   -0.0000 C   0  0  0  0  0  0  0  0  0  0  0  0
    5.3664    2.7571   -0.0000 C   0  0  0  0  0  0  0  0  0  0  0  0
   -3.2863   -4.2464   -0.0000 C   0  0  0  0  0  0  0  0  0  0  0  0
    6.8557   -1.9201   -0.0000 C   0  0  0  0  0  0  0  0  0  0  0  0
    8.0373    0.4923   -0.0000 C   0  0  0  0  0  0  0  0  0  0  0  0
    5.4649    4.3325   -0.0000 C   0  0  0  0  0  0  0  0  0  0  0  0
    6.6465    1.9201   -0.0000 C   0  0  0  0  0  0  0  0  0  0  0  0
    8.1235   -1.0339   -0.0000 C   0  0  0  0  0  0  0  0  0  0  0  0
    6.8434    5.0218   -0.0000 C   0  0  0  0  0  0  0  0  0  0  0  0
    8.0250    2.6094   -0.0000 C   0  0  0  0  0  0  0  0  0  0  0  0
    9.5020   -1.6985   -0.0000 N   0  0  0  0  0  0  0  0  0  0  0  0
    8.1112    4.1602   -0.0000 C   0  0  0  0  0  0  0  0  0  0  0  0
   10.7698   -0.8123   -0.0000 C   0  0  0  0  0  0  0  0  0  0  0  0
    9.2189    4.7141   -0.0000 O   0  0  0  0  0  0  0  0  0  0  0  0
   10.6713    0.4431   -0.0000 O   0  0  0  0  0  0  0  0  0  0  0  0
   12.1483   -1.4770   -0.0000 C   0  0  0  0  0  0  0  0  0  0  0  0
   13.4161   -0.5908   -0.0000 C   0  0  0  0  0  0  0  0  0  0  0  0
   14.7946   -1.2554   -0.0000 C   0  0  0  0  0  0  0  0  0  0  0  0
   16.0624   -0.3692   -0.0000 C   0  0  0  0  0  0  0  0  0  0  0  0
   17.4409   -1.0339   -0.0000 C   0  0  0  0  0  0  0  0  0  0  0  0
   18.7087   -0.1477   -0.0000 C   0  0  0  0  0  0  0  0  0  0  0  0
   20.0872   -0.8123   -0.0000 C   0  0  0  0  0  0  0  0  0  0  0  0
   21.0965   -0.0985   -0.0000 O   0  0  0  0  0  0  0  0  0  0  0  0
   20.1610   -2.0432   -0.0000 O   0  0  0  0  0  0  0  0  0  0  0  0
  1  2  2  0  0  0  0
  1  3  2  0  0  0  0
  1  4  1  0  0  0  0
  1  5  1  0  0  0  0
  4  6  1  0  0  0  0
  5  7  1  0  0  0  0
  5  8  1  0  0  0  0
  6  9  2  0  0  0  0
  6 10  1  0  0  0  0
  7 11  1  0  0  0  0
  7 12  1  0  0  0  0
  8 13  1  0  0  0  0
  9 14  1  0  0  0  0
 10 15  2  0  0  0  0
 12 16  1  0  0  0  0
 12 17  2  0  0  0  0
 14 18  1  0  0  0  0
 14 19  2  0  0  0  0
 16 20  2  0  0  0  0
 16 21  1  0  0  0  0
 17 22  1  0  0  0  0
 18 23  1  0  0  0  0
 20 24  1  0  0  0  0
 21 25  2  0  0  0  0
 22 26  2  0  0  0  0
 22 27  1  0  0  0  0
 24 28  2  0  0  0  0
 26 29  1  0  0  0  0
 27 30  2  0  0  0  0
 28 31  1  0  0  0  0
 29 32  2  0  0  0  0
 31 33  1  0  0  0  0
 32 34  1  0  0  0  0
 33 35  2  0  0  0  0
 33 36  1  0  0  0  0
 36 37  1  0  0  0  0
 37 38  1  0  0  0  0
 38 39  1  0  0  0  0
 39 40  1  0  0  0  0
 40 41  1  0  0  0  0
 41 42  1  0  0  0  0
 42 43  2  0  0  0  0
 42 44  1  0  0  0  0
 11 13  1  0  0  0  0
 13 17  1  0  0  0  0
 15 19  1  0  0  0  0
 25 28  1  0  0  0  0
 30 32  1  0  0  0  0
M  END
>  <MolRegNo>
1950504

>  <m>
=

>  <Value>
4428.6

>  <Unit>
nM

>  <Type>
Ki

>  <pValue>
5.35

>  <Ligand Efficiency>
0.17

>  <Binding Efficiency>
8.61

>  <Surface Efficiency>
3.61

>  <Assay Index>
949887

>  <Assay Category>


>  <Assay Organism>
Homo sapiens

>  <Target ID>
19

>  <Target Name>
Estrogen receptor alpha

>  <Target Organism>
Homo sapiens

>  <Target Description>
Target is a single protein chain

>  <Sequence Accession>
P03372

>  <Reference>
J Med Chem 58 (11), 4550-4572 (2015)

>  <Pubmed ID>
25993269

>  <DOI>
10.1021/acs.jmedchem.5b00099

$$$$
1950505
Actelion Java MolfileCreator 1.0

 43 47  0  0  0  0  0  0  0  0999 V2000
    0.0000   -0.0000   -0.0000 S   0  0  0  0  0  0  0  0  0  0  0  0
   -0.0862   -1.2309   -0.0000 O   0  0  0  0  0  0  0  0  0  0  0  0
   -1.1201   -0.5416   -0.0000 O   0  0  0  0  0  0  0  0  0  0  0  0
   -1.3047    0.8616   -0.0000 O   0  0  0  0  0  0  0  0  0  0  0  0
    1.3786    0.7016   -0.0000 C   0  0  0  0  0  0  0  0  0  0  0  0
   -2.7080    0.1846   -0.0000 C   0  0  0  0  0  0  0  0  0  0  0  0
    2.5726   -0.0123   -0.0000 C   0  0  0  0  0  0  0  0  0  0  0  0
    1.3663    2.2772   -0.0000 C   0  0  0  0  0  0  0  0  0  0  0  0
   -4.0127    1.0463   -0.0000 C   0  0  0  0  0  0  0  0  0  0  0  0
   -2.8064   -1.3540   -0.0000 C   0  0  0  0  0  0  0  0  0  0  0  0
    3.2003    1.4648   -0.0000 O   0  0  0  0  0  0  0  0  0  0  0  0
    3.8896    0.7262   -0.0000 C   0  0  0  0  0  0  0  0  0  0  0  0
    2.5603    3.0649   -0.0000 C   0  0  0  0  0  0  0  0  0  0  0  0
   -5.4159    0.3570   -0.0000 C   0  0  0  0  0  0  0  0  0  0  0  0
   -3.9512    2.3018   -0.0000 C   0  0  0  0  0  0  0  0  0  0  0  0
   -4.2097   -2.0433   -0.0000 C   0  0  0  0  0  0  0  0  0  0  0  0
    5.3790    0.2954   -0.0000 C   0  0  0  0  0  0  0  0  0  0  0  0
    3.8773    2.3018   -0.0000 C   0  0  0  0  0  0  0  0  0  0  0  0
   -5.5144   -1.1817   -0.0000 C   0  0  0  0  0  0  0  0  0  0  0  0
    5.4775   -1.2555   -0.0000 C   0  0  0  0  0  0  0  0  0  0  0  0
    6.6591    1.1570   -0.0000 C   0  0  0  0  0  0  0  0  0  0  0  0
    5.3667    2.7572   -0.0000 C   0  0  0  0  0  0  0  0  0  0  0  0
    6.8561   -1.9202   -0.0000 C   0  0  0  0  0  0  0  0  0  0  0  0
    8.0377    0.4924   -0.0000 C   0  0  0  0  0  0  0  0  0  0  0  0
    5.4652    4.3327   -0.0000 C   0  0  0  0  0  0  0  0  0  0  0  0
    6.6468    1.9202   -0.0000 C   0  0  0  0  0  0  0  0  0  0  0  0
    8.1239   -1.0340   -0.0000 C   0  0  0  0  0  0  0  0  0  0  0  0
    6.8438    5.0220   -0.0000 C   0  0  0  0  0  0  0  0  0  0  0  0
    8.0254    2.6095   -0.0000 C   0  0  0  0  0  0  0  0  0  0  0  0
    9.5025   -1.6986   -0.0000 N   0  0  0  0  0  0  0  0  0  0  0  0
    8.1116    4.1604   -0.0000 C   0  0  0  0  0  0  0  0  0  0  0  0
   10.7703   -0.8124   -0.0000 C   0  0  0  0  0  0  0  0  0  0  0  0
    9.2194    4.7143   -0.0000 O   0  0  0  0  0  0  0  0  0  0  0  0
   10.6719    0.4431   -0.0000 O   0  0  0  0  0  0  0  0  0  0  0  0
   12.1489   -1.4771   -0.0000 C   0  0  0  0  0  0  0  0  0  0  0  0
   13.4167   -0.5908   -0.0000 C   0  0  0  0  0  0  0  0  0  0  0  0
   14.7954   -1.2555   -0.0000 C   0  0  0  0  0  0  0  0  0  0  0  0
   16.0632   -0.3693   -0.0000 C   0  0  0  0  0  0  0  0  0  0  0  0
   17.4418   -1.0340   -0.0000 C   0  0  0  0  0  0  0  0  0  0  0  0
   18.7096   -0.1477   -0.0000 C   0  0  0  0  0  0  0  0  0  0  0  0
   20.0882   -0.8124   -0.0000 C   0  0  0  0  0  0  0  0  0  0  0  0
   21.0975   -0.0985   -0.0000 O   0  0  0  0  0  0  0  0  0  0  0  0
   20.1621   -2.0433   -0.0000 O   0  0  0  0  0  0  0  0  0  0  0  0
  1  2  2  0  0  0  0
  1  3  2  0  0  0  0
  1  4  1  0  0  0  0
  1  5  1  0  0  0  0
  4  6  1  0  0  0  0
  5  7  1  0  0  0  0
  5  8  1  0  0  0  0
  6  9  2  0  0  0  0
  6 10  1  0  0  0  0
  7 11  1  0  0  0  0
  7 12  1  0  0  0  0
  8 13  1  0  0  0  0
  9 14  1  0  0  0  0
  9 15  1  0  0  0  0
 10 16  2  0  0  0  0
 12 17  1  0  0  0  0
 12 18  2  0  0  0  0
 14 19  2  0  0  0  0
 17 20  2  0  0  0  0
 17 21  1  0  0  0  0
 18 22  1  0  0  0  0
 20 23  1  0  0  0  0
 21 24  2  0  0  0  0
 22 25  2  0  0  0  0
 22 26  1  0  0  0  0
 23 27  2  0  0  0  0
 25 28  1  0  0  0  0
 26 29  2  0  0  0  0
 27 30  1  0  0  0  0
 28 31  2  0  0  0  0
 30 32  1  0  0  0  0
 31 33  1  0  0  0  0
 32 34  2  0  0  0  0
 32 35  1  0  0  0  0
 35 36  1  0  0  0  0
 36 37  1  0  0  0  0
 37 38  1  0  0  0  0
 38 39  1  0  0  0  0
 39 40  1  0  0  0  0
 40 41  1  0  0  0  0
 41 42  2  0  0  0  0
 41 43  1  0  0  0  0
 11 13  1  0  0  0  0
 13 18  1  0  0  0  0
 16 19  1  0  0  0  0
 24 27  1  0  0  0  0
 29 31  1  0  0  0  0
M  END
>  <MolRegNo>
1950505

>  <m>
=

>  <Value>
104.02

>  <Unit>
nM

>  <Type>
Ki

>  <pValue>
6.98

>  <Ligand Efficiency>
0.22

>  <Binding Efficiency>
11.53

>  <Surface Efficiency>
5.02

>  <Assay Index>
949887

>  <Assay Category>


>  <Assay Organism>
Homo sapiens

>  <Target ID>
19

>  <Target Name>
Estrogen receptor alpha

>  <Target Organism>
Homo sapiens

>  <Target Description>
Target is a single protein chain

>  <Sequence Accession>
P03372

>  <Reference>
J Med Chem 58 (11), 4550-4572 (2015)

>  <Pubmed ID>
25993269

>  <DOI>
10.1021/acs.jmedchem.5b00099

$$$$
1950506
Actelion Java MolfileCreator 1.0

 43 47  0  0  0  0  0  0  0  0999 V2000
    0.0000   -0.0000   -0.0000 S   0  0  0  0  0  0  0  0  0  0  0  0
   -0.0862   -1.2313   -0.0000 O   0  0  0  0  0  0  0  0  0  0  0  0
   -1.1205   -0.5418   -0.0000 O   0  0  0  0  0  0  0  0  0  0  0  0
   -1.3052    0.8619   -0.0000 O   0  0  0  0  0  0  0  0  0  0  0  0
    1.3791    0.7018   -0.0000 C   0  0  0  0  0  0  0  0  0  0  0  0
   -2.7089    0.1847   -0.0000 C   0  0  0  0  0  0  0  0  0  0  0  0
    2.5734   -0.0123   -0.0000 C   0  0  0  0  0  0  0  0  0  0  0  0
    1.3667    2.2779   -0.0000 C   0  0  0  0  0  0  0  0  0  0  0  0
   -2.8074   -1.3544   -0.0000 C   0  0  0  0  0  0  0  0  0  0  0  0
   -4.0140    1.0466   -0.0000 C   0  0  0  0  0  0  0  0  0  0  0  0
    3.2014    1.4652   -0.0000 O   0  0  0  0  0  0  0  0  0  0  0  0
    3.8909    0.7265   -0.0000 C   0  0  0  0  0  0  0  0  0  0  0  0
    2.5611    3.0659   -0.0000 C   0  0  0  0  0  0  0  0  0  0  0  0
   -4.2110   -2.0440   -0.0000 C   0  0  0  0  0  0  0  0  0  0  0  0
   -5.4177    0.3571   -0.0000 C   0  0  0  0  0  0  0  0  0  0  0  0
    5.3808    0.2955   -0.0000 C   0  0  0  0  0  0  0  0  0  0  0  0
    3.8786    2.3025   -0.0000 C   0  0  0  0  0  0  0  0  0  0  0  0
   -4.2972   -3.2753   -0.0000 O   0  0  0  0  0  0  0  0  0  0  0  0
   -5.5162   -1.1820   -0.0000 C   0  0  0  0  0  0  0  0  0  0  0  0
    5.4793   -1.2559   -0.0000 C   0  0  0  0  0  0  0  0  0  0  0  0
    6.6613    1.1574   -0.0000 C   0  0  0  0  0  0  0  0  0  0  0  0
    5.3685    2.7581   -0.0000 C   0  0  0  0  0  0  0  0  0  0  0  0
    6.8583   -1.9208   -0.0000 C   0  0  0  0  0  0  0  0  0  0  0  0
    8.0404    0.4925   -0.0000 C   0  0  0  0  0  0  0  0  0  0  0  0
    5.4670    4.3342   -0.0000 C   0  0  0  0  0  0  0  0  0  0  0  0
    6.6490    1.9208   -0.0000 C   0  0  0  0  0  0  0  0  0  0  0  0
    8.1266   -1.0343   -0.0000 C   0  0  0  0  0  0  0  0  0  0  0  0
    6.8460    5.0237   -0.0000 C   0  0  0  0  0  0  0  0  0  0  0  0
    8.0281    2.6104   -0.0000 C   0  0  0  0  0  0  0  0  0  0  0  0
    9.5056   -1.6992   -0.0000 N   0  0  0  0  0  0  0  0  0  0  0  0
    8.1143    4.1618   -0.0000 C   0  0  0  0  0  0  0  0  0  0  0  0
   10.7739   -0.8127   -0.0000 C   0  0  0  0  0  0  0  0  0  0  0  0
    9.2224    4.7159   -0.0000 O   0  0  0  0  0  0  0  0  0  0  0  0
   10.6754    0.4433   -0.0000 O   0  0  0  0  0  0  0  0  0  0  0  0
   12.1529   -1.4776   -0.0000 C   0  0  0  0  0  0  0  0  0  0  0  0
   13.4211   -0.5910   -0.0000 C   0  0  0  0  0  0  0  0  0  0  0  0
   14.8002   -1.2559   -0.0000 C   0  0  0  0  0  0  0  0  0  0  0  0
   16.0684   -0.3694   -0.0000 C   0  0  0  0  0  0  0  0  0  0  0  0
   17.4475   -1.0343   -0.0000 C   0  0  0  0  0  0  0  0  0  0  0  0
   18.7157   -0.1478   -0.0000 C   0  0  0  0  0  0  0  0  0  0  0  0
   20.0948   -0.8127   -0.0000 C   0  0  0  0  0  0  0  0  0  0  0  0
   21.1044   -0.0985   -0.0000 O   0  0  0  0  0  0  0  0  0  0  0  0
   20.1687   -2.0440   -0.0000 O   0  0  0  0  0  0  0  0  0  0  0  0
  1  2  2  0  0  0  0
  1  3  2  0  0  0  0
  1  4  1  0  0  0  0
  1  5  1  0  0  0  0
  4  6  1  0  0  0  0
  5  7  1  0  0  0  0
  5  8  1  0  0  0  0
  6  9  2  0  0  0  0
  6 10  1  0  0  0  0
  7 11  1  0  0  0  0
  7 12  1  0  0  0  0
  8 13  1  0  0  0  0
  9 14  1  0  0  0  0
 10 15  2  0  0  0  0
 12 16  1  0  0  0  0
 12 17  2  0  0  0  0
 14 18  1  0  0  0  0
 14 19  2  0  0  0  0
 16 20  2  0  0  0  0
 16 21  1  0  0  0  0
 17 22  1  0  0  0  0
 20 23  1  0  0  0  0
 21 24  2  0  0  0  0
 22 25  2  0  0  0  0
 22 26  1  0  0  0  0
 23 27  2  0  0  0  0
 25 28  1  0  0  0  0
 26 29  2  0  0  0  0
 27 30  1  0  0  0  0
 28 31  2  0  0  0  0
 30 32  1  0  0  0  0
 31 33  1  0  0  0  0
 32 34  2  0  0  0  0
 32 35  1  0  0  0  0
 35 36  1  0  0  0  0
 36 37  1  0  0  0  0
 37 38  1  0  0  0  0
 38 39  1  0  0  0  0
 39 40  1  0  0  0  0
 40 41  1  0  0  0  0
 41 42  2  0  0  0  0
 41 43  1  0  0  0  0
 11 13  1  0  0  0  0
 13 17  1  0  0  0  0
 15 19  1  0  0  0  0
 24 27  1  0  0  0  0
 29 31  1  0  0  0  0
M  END
>  <MolRegNo>
1950506

>  <m>
=

>  <Value>
81.36

>  <Unit>
nM

>  <Type>
Ki

>  <pValue>
7.09

>  <Ligand Efficiency>
0.23

>  <Binding Efficiency>
11.67

>  <Surface Efficiency>
4.45

>  <Assay Index>
949887

>  <Assay Category>


>  <Assay Organism>
Homo sapiens

>  <Target ID>
19

>  <Target Name>
Estrogen receptor alpha

>  <Target Organism>
Homo sapiens

>  <Target Description>
Target is a single protein chain

>  <Sequence Accession>
P03372

>  <Reference>
J Med Chem 58 (11), 4550-4572 (2015)

>  <Pubmed ID>
25993269

>  <DOI>
10.1021/acs.jmedchem.5b00099

$$$$
1950507
Actelion Java MolfileCreator 1.0

 43 47  0  0  0  0  0  0  0  0999 V2000
    0.0000   -0.0000   -0.0000 S   0  0  0  0  0  0  0  0  0  0  0  0
   -0.0862   -1.2311   -0.0000 O   0  0  0  0  0  0  0  0  0  0  0  0
   -1.1203   -0.5417   -0.0000 O   0  0  0  0  0  0  0  0  0  0  0  0
   -1.3050    0.8618   -0.0000 O   0  0  0  0  0  0  0  0  0  0  0  0
    1.3789    0.7017   -0.0000 C   0  0  0  0  0  0  0  0  0  0  0  0
   -2.7085    0.1847   -0.0000 C   0  0  0  0  0  0  0  0  0  0  0  0
    2.5730   -0.0123   -0.0000 C   0  0  0  0  0  0  0  0  0  0  0  0
    1.3665    2.2776   -0.0000 C   0  0  0  0  0  0  0  0  0  0  0  0
   -4.0134    1.0465   -0.0000 C   0  0  0  0  0  0  0  0  0  0  0  0
   -2.8070   -1.3542   -0.0000 C   0  0  0  0  0  0  0  0  0  0  0  0
    3.2009    1.4650   -0.0000 O   0  0  0  0  0  0  0  0  0  0  0  0
    3.8903    0.7264   -0.0000 C   0  0  0  0  0  0  0  0  0  0  0  0
    2.5607    3.0655   -0.0000 C   0  0  0  0  0  0  0  0  0  0  0  0
   -5.4169    0.3570   -0.0000 C   0  0  0  0  0  0  0  0  0  0  0  0
   -4.2104   -2.0437   -0.0000 C   0  0  0  0  0  0  0  0  0  0  0  0
    5.3800    0.2955   -0.0000 C   0  0  0  0  0  0  0  0  0  0  0  0
    3.8780    2.3022   -0.0000 C   0  0  0  0  0  0  0  0  0  0  0  0
   -5.5154   -1.1819   -0.0000 C   0  0  0  0  0  0  0  0  0  0  0  0
    5.4785   -1.2557   -0.0000 C   0  0  0  0  0  0  0  0  0  0  0  0
    6.6604    1.1573   -0.0000 C   0  0  0  0  0  0  0  0  0  0  0  0
    5.3677    2.7577   -0.0000 C   0  0  0  0  0  0  0  0  0  0  0  0
   -6.6357   -1.7236   -0.0000 O   0  0  0  0  0  0  0  0  0  0  0  0
    6.8573   -1.9205   -0.0000 C   0  0  0  0  0  0  0  0  0  0  0  0
    8.0392    0.4924   -0.0000 C   0  0  0  0  0  0  0  0  0  0  0  0
    5.4662    4.3335   -0.0000 C   0  0  0  0  0  0  0  0  0  0  0  0
    6.6480    1.9205   -0.0000 C   0  0  0  0  0  0  0  0  0  0  0  0
    8.1254   -1.0341   -0.0000 C   0  0  0  0  0  0  0  0  0  0  0  0
    6.8450    5.0230   -0.0000 C   0  0  0  0  0  0  0  0  0  0  0  0
    8.0269    2.6100   -0.0000 C   0  0  0  0  0  0  0  0  0  0  0  0
    9.5042   -1.6989   -0.0000 N   0  0  0  0  0  0  0  0  0  0  0  0
    8.1131    4.1612   -0.0000 C   0  0  0  0  0  0  0  0  0  0  0  0
   10.7723   -0.8125   -0.0000 C   0  0  0  0  0  0  0  0  0  0  0  0
    9.2211    4.7152   -0.0000 O   0  0  0  0  0  0  0  0  0  0  0  0
   10.6738    0.4432   -0.0000 O   0  0  0  0  0  0  0  0  0  0  0  0
   12.1511   -1.4773   -0.0000 C   0  0  0  0  0  0  0  0  0  0  0  0
   13.4192   -0.5909   -0.0000 C   0  0  0  0  0  0  0  0  0  0  0  0
   14.7980   -1.2557   -0.0000 C   0  0  0  0  0  0  0  0  0  0  0  0
   16.0661   -0.3693   -0.0000 C   0  0  0  0  0  0  0  0  0  0  0  0
   17.4450   -1.0341   -0.0000 C   0  0  0  0  0  0  0  0  0  0  0  0
   18.7130   -0.1477   -0.0000 C   0  0  0  0  0  0  0  0  0  0  0  0
   20.0919   -0.8125   -0.0000 C   0  0  0  0  0  0  0  0  0  0  0  0
   21.1014   -0.0985   -0.0000 O   0  0  0  0  0  0  0  0  0  0  0  0
   20.1657   -2.0437   -0.0000 O   0  0  0  0  0  0  0  0  0  0  0  0
  1  2  2  0  0  0  0
  1  3  2  0  0  0  0
  1  4  1  0  0  0  0
  1  5  1  0  0  0  0
  4  6  1  0  0  0  0
  5  7  1  0  0  0  0
  5  8  1  0  0  0  0
  6  9  2  0  0  0  0
  6 10  1  0  0  0  0
  7 11  1  0  0  0  0
  7 12  1  0  0  0  0
  8 13  1  0  0  0  0
  9 14  1  0  0  0  0
 10 15  2  0  0  0  0
 12 16  1  0  0  0  0
 12 17  2  0  0  0  0
 14 18  2  0  0  0  0
 16 19  2  0  0  0  0
 16 20  1  0  0  0  0
 17 21  1  0  0  0  0
 18 22  1  0  0  0  0
 19 23  1  0  0  0  0
 20 24  2  0  0  0  0
 21 25  2  0  0  0  0
 21 26  1  0  0  0  0
 23 27  2  0  0  0  0
 25 28  1  0  0  0  0
 26 29  2  0  0  0  0
 27 30  1  0  0  0  0
 28 31  2  0  0  0  0
 30 32  1  0  0  0  0
 31 33  1  0  0  0  0
 32 34  2  0  0  0  0
 32 35  1  0  0  0  0
 35 36  1  0  0  0  0
 36 37  1  0  0  0  0
 37 38  1  0  0  0  0
 38 39  1  0  0  0  0
 39 40  1  0  0  0  0
 40 41  1  0  0  0  0
 41 42  2  0  0  0  0
 41 43  1  0  0  0  0
 11 13  1  0  0  0  0
 13 17  1  0  0  0  0
 15 18  1  0  0  0  0
 24 27  1  0  0  0  0
 29 31  1  0  0  0  0
M  END
>  <MolRegNo>
1950507

>  <m>
=

>  <Value>
133.05

>  <Unit>
nM

>  <Type>
Ki

>  <pValue>
6.88

>  <Ligand Efficiency>
0.22

>  <Binding Efficiency>
11.32

>  <Surface Efficiency>
4.31

>  <Assay Index>
949887

>  <Assay Category>


>  <Assay Organism>
Homo sapiens

>  <Target ID>
19

>  <Target Name>
Estrogen receptor alpha

>  <Target Organism>
Homo sapiens

>  <Target Description>
Target is a single protein chain

>  <Sequence Accession>
P03372

>  <Reference>
J Med Chem 58 (11), 4550-4572 (2015)

>  <Pubmed ID>
25993269

>  <DOI>
10.1021/acs.jmedchem.5b00099

$$$$
1950508
Actelion Java MolfileCreator 1.0

 44 48  0  0  0  0  0  0  0  0999 V2000
    0.0000   -0.0000   -0.0000 S   0  0  0  0  0  0  0  0  0  0  0  0
   -0.0861   -1.2299   -0.0000 O   0  0  0  0  0  0  0  0  0  0  0  0
   -1.1192   -0.5411   -0.0000 O   0  0  0  0  0  0  0  0  0  0  0  0
   -1.3036    0.8609   -0.0000 O   0  0  0  0  0  0  0  0  0  0  0  0
    1.3774    0.7010   -0.0000 C   0  0  0  0  0  0  0  0  0  0  0  0
   -2.7057    0.1845   -0.0000 C   0  0  0  0  0  0  0  0  0  0  0  0
    2.5704   -0.0123   -0.0000 C   0  0  0  0  0  0  0  0  0  0  0  0
    1.3651    2.2752   -0.0000 C   0  0  0  0  0  0  0  0  0  0  0  0
   -4.0093    1.0454   -0.0000 C   0  0  0  0  0  0  0  0  0  0  0  0
   -2.8041   -1.3528   -0.0000 C   0  0  0  0  0  0  0  0  0  0  0  0
    3.1976    1.4635   -0.0000 O   0  0  0  0  0  0  0  0  0  0  0  0
    3.8863    0.7256   -0.0000 C   0  0  0  0  0  0  0  0  0  0  0  0
    2.5581    3.0623   -0.0000 C   0  0  0  0  0  0  0  0  0  0  0  0
   -3.9355    2.6073   -0.0000 O   0  0  0  0  0  0  0  0  0  0  0  0
   -5.4114    0.3567   -0.0000 C   0  0  0  0  0  0  0  0  0  0  0  0
   -4.2061   -2.0416   -0.0000 C   0  0  0  0  0  0  0  0  0  0  0  0
    5.3745    0.2952   -0.0000 C   0  0  0  0  0  0  0  0  0  0  0  0
    3.8740    2.2998   -0.0000 C   0  0  0  0  0  0  0  0  0  0  0  0
   -4.9809    3.2960   -0.0000 C   0  0  0  0  0  0  0  0  0  0  0  0
   -5.5097   -1.1807   -0.0000 C   0  0  0  0  0  0  0  0  0  0  0  0
    5.4729   -1.2545   -0.0000 C   0  0  0  0  0  0  0  0  0  0  0  0
    6.6535    1.1561   -0.0000 C   0  0  0  0  0  0  0  0  0  0  0  0
    5.3622    2.7549   -0.0000 C   0  0  0  0  0  0  0  0  0  0  0  0
    6.8503   -1.9186   -0.0000 C   0  0  0  0  0  0  0  0  0  0  0  0
    8.0310    0.4919   -0.0000 C   0  0  0  0  0  0  0  0  0  0  0  0
    5.4606    4.3291   -0.0000 C   0  0  0  0  0  0  0  0  0  0  0  0
    6.6412    1.9186   -0.0000 C   0  0  0  0  0  0  0  0  0  0  0  0
    8.1170   -1.0331   -0.0000 C   0  0  0  0  0  0  0  0  0  0  0  0
    6.8380    5.0178   -0.0000 C   0  0  0  0  0  0  0  0  0  0  0  0
    8.0187    2.6073   -0.0000 C   0  0  0  0  0  0  0  0  0  0  0  0
    9.4945   -1.6972   -0.0000 N   0  0  0  0  0  0  0  0  0  0  0  0
    8.1047    4.1569   -0.0000 C   0  0  0  0  0  0  0  0  0  0  0  0
   10.7612   -0.8117   -0.0000 C   0  0  0  0  0  0  0  0  0  0  0  0
    9.2116    4.7103   -0.0000 O   0  0  0  0  0  0  0  0  0  0  0  0
   10.6628    0.4427   -0.0000 O   0  0  0  0  0  0  0  0  0  0  0  0
   12.1387   -1.4758   -0.0000 C   0  0  0  0  0  0  0  0  0  0  0  0
   13.4054   -0.5903   -0.0000 C   0  0  0  0  0  0  0  0  0  0  0  0
   14.7829   -1.2545   -0.0000 C   0  0  0  0  0  0  0  0  0  0  0  0
   16.0496   -0.3690   -0.0000 C   0  0  0  0  0  0  0  0  0  0  0  0
   17.4270   -1.0331   -0.0000 C   0  0  0  0  0  0  0  0  0  0  0  0
   18.6938   -0.1476   -0.0000 C   0  0  0  0  0  0  0  0  0  0  0  0
   20.0712   -0.8117   -0.0000 C   0  0  0  0  0  0  0  0  0  0  0  0
   21.0797   -0.0984   -0.0000 O   0  0  0  0  0  0  0  0  0  0  0  0
   20.1450   -2.0416   -0.0000 O   0  0  0  0  0  0  0  0  0  0  0  0
  1  2  2  0  0  0  0
  1  3  2  0  0  0  0
  1  4  1  0  0  0  0
  1  5  1  0  0  0  0
  4  6  1  0  0  0  0
  5  7  1  0  0  0  0
  5  8  1  0  0  0  0
  6  9  2  0  0  0  0
  6 10  1  0  0  0  0
  7 11  1  0  0  0  0
  7 12  1  0  0  0  0
  8 13  1  0  0  0  0
  9 14  1  0  0  0  0
  9 15  1  0  0  0  0
 10 16  2  0  0  0  0
 12 17  1  0  0  0  0
 12 18  2  0  0  0  0
 14 19  1  0  0  0  0
 15 20  2  0  0  0  0
 17 21  2  0  0  0  0
 17 22  1  0  0  0  0
 18 23  1  0  0  0  0
 21 24  1  0  0  0  0
 22 25  2  0  0  0  0
 23 26  2  0  0  0  0
 23 27  1  0  0  0  0
 24 28  2  0  0  0  0
 26 29  1  0  0  0  0
 27 30  2  0  0  0  0
 28 31  1  0  0  0  0
 29 32  2  0  0  0  0
 31 33  1  0  0  0  0
 32 34  1  0  0  0  0
 33 35  2  0  0  0  0
 33 36  1  0  0  0  0
 36 37  1  0  0  0  0
 37 38  1  0  0  0  0
 38 39  1  0  0  0  0
 39 40  1  0  0  0  0
 40 41  1  0  0  0  0
 41 42  1  0  0  0  0
 42 43  2  0  0  0  0
 42 44  1  0  0  0  0
 11 13  1  0  0  0  0
 13 18  1  0  0  0  0
 16 20  1  0  0  0  0
 25 28  1  0  0  0  0
 30 32  1  0  0  0  0
M  END
>  <MolRegNo>
1950508

>  <m>
=

>  <Value>
158.97

>  <Unit>
nM

>  <Type>
Ki

>  <pValue>
6.8

>  <Ligand Efficiency>
0.21

>  <Binding Efficiency>
10.94

>  <Surface Efficiency>
4.58

>  <Assay Index>
949887

>  <Assay Category>


>  <Assay Organism>
Homo sapiens

>  <Target ID>
19

>  <Target Name>
Estrogen receptor alpha

>  <Target Organism>
Homo sapiens

>  <Target Description>
Target is a single protein chain

>  <Sequence Accession>
P03372

>  <Reference>
J Med Chem 58 (11), 4550-4572 (2015)

>  <Pubmed ID>
25993269

>  <DOI>
10.1021/acs.jmedchem.5b00099

$$$$
1950509
Actelion Java MolfileCreator 1.0

 43 47  0  0  0  0  0  0  0  0999 V2000
    0.0000   -0.0000   -0.0000 S   0  0  0  0  0  0  0  0  0  0  0  0
   -0.0862   -1.2311   -0.0000 O   0  0  0  0  0  0  0  0  0  0  0  0
   -1.1203   -0.5417   -0.0000 O   0  0  0  0  0  0  0  0  0  0  0  0
   -1.3050    0.8618   -0.0000 O   0  0  0  0  0  0  0  0  0  0  0  0
    1.3789    0.7017   -0.0000 C   0  0  0  0  0  0  0  0  0  0  0  0
   -2.7085    0.1847   -0.0000 C   0  0  0  0  0  0  0  0  0  0  0  0
    2.5730   -0.0123   -0.0000 C   0  0  0  0  0  0  0  0  0  0  0  0
    1.3665    2.2776   -0.0000 C   0  0  0  0  0  0  0  0  0  0  0  0
   -4.0134    1.0465   -0.0000 C   0  0  0  0  0  0  0  0  0  0  0  0
   -2.8070   -1.3542   -0.0000 C   0  0  0  0  0  0  0  0  0  0  0  0
    3.2009    1.4650   -0.0000 O   0  0  0  0  0  0  0  0  0  0  0  0
    3.8903    0.7264   -0.0000 C   0  0  0  0  0  0  0  0  0  0  0  0
    2.5607    3.0655   -0.0000 C   0  0  0  0  0  0  0  0  0  0  0  0
   -5.4169    0.3570   -0.0000 C   0  0  0  0  0  0  0  0  0  0  0  0
   -4.2104   -2.0437   -0.0000 C   0  0  0  0  0  0  0  0  0  0  0  0
    5.3800    0.2955   -0.0000 C   0  0  0  0  0  0  0  0  0  0  0  0
    3.8780    2.3022   -0.0000 C   0  0  0  0  0  0  0  0  0  0  0  0
   -5.5154   -1.1819   -0.0000 C   0  0  0  0  0  0  0  0  0  0  0  0
    5.4785   -1.2557   -0.0000 C   0  0  0  0  0  0  0  0  0  0  0  0
    6.6604    1.1573   -0.0000 C   0  0  0  0  0  0  0  0  0  0  0  0
    5.3677    2.7577   -0.0000 C   0  0  0  0  0  0  0  0  0  0  0  0
   -6.6357   -1.7236   -0.0000 F   0  0  0  0  0  0  0  0  0  0  0  0
    6.8573   -1.9205   -0.0000 C   0  0  0  0  0  0  0  0  0  0  0  0
    8.0392    0.4924   -0.0000 C   0  0  0  0  0  0  0  0  0  0  0  0
    5.4662    4.3335   -0.0000 C   0  0  0  0  0  0  0  0  0  0  0  0
    6.6480    1.9205   -0.0000 C   0  0  0  0  0  0  0  0  0  0  0  0
    8.1254   -1.0341   -0.0000 C   0  0  0  0  0  0  0  0  0  0  0  0
    6.8450    5.0230   -0.0000 C   0  0  0  0  0  0  0  0  0  0  0  0
    8.0269    2.6100   -0.0000 C   0  0  0  0  0  0  0  0  0  0  0  0
    9.5042   -1.6989   -0.0000 N   0  0  0  0  0  0  0  0  0  0  0  0
    8.1131    4.1612   -0.0000 C   0  0  0  0  0  0  0  0  0  0  0  0
   10.7723   -0.8125   -0.0000 C   0  0  0  0  0  0  0  0  0  0  0  0
    9.2211    4.7152   -0.0000 O   0  0  0  0  0  0  0  0  0  0  0  0
   10.6738    0.4432   -0.0000 O   0  0  0  0  0  0  0  0  0  0  0  0
   12.1511   -1.4773   -0.0000 C   0  0  0  0  0  0  0  0  0  0  0  0
   13.4192   -0.5909   -0.0000 C   0  0  0  0  0  0  0  0  0  0  0  0
   14.7980   -1.2557   -0.0000 C   0  0  0  0  0  0  0  0  0  0  0  0
   16.0661   -0.3693   -0.0000 C   0  0  0  0  0  0  0  0  0  0  0  0
   17.4450   -1.0341   -0.0000 C   0  0  0  0  0  0  0  0  0  0  0  0
   18.7130   -0.1477   -0.0000 C   0  0  0  0  0  0  0  0  0  0  0  0
   20.0919   -0.8125   -0.0000 C   0  0  0  0  0  0  0  0  0  0  0  0
   21.1014   -0.0985   -0.0000 O   0  0  0  0  0  0  0  0  0  0  0  0
   20.1657   -2.0437   -0.0000 O   0  0  0  0  0  0  0  0  0  0  0  0
  1  2  2  0  0  0  0
  1  3  2  0  0  0  0
  1  4  1  0  0  0  0
  1  5  1  0  0  0  0
  4  6  1  0  0  0  0
  5  7  1  0  0  0  0
  5  8  1  0  0  0  0
  6  9  2  0  0  0  0
  6 10  1  0  0  0  0
  7 11  1  0  0  0  0
  7 12  1  0  0  0  0
  8 13  1  0  0  0  0
  9 14  1  0  0  0  0
 10 15  2  0  0  0  0
 12 16  1  0  0  0  0
 12 17  2  0  0  0  0
 14 18  2  0  0  0  0
 16 19  2  0  0  0  0
 16 20  1  0  0  0  0
 17 21  1  0  0  0  0
 18 22  1  0  0  0  0
 19 23  1  0  0  0  0
 20 24  2  0  0  0  0
 21 25  2  0  0  0  0
 21 26  1  0  0  0  0
 23 27  2  0  0  0  0
 25 28  1  0  0  0  0
 26 29  2  0  0  0  0
 27 30  1  0  0  0  0
 28 31  2  0  0  0  0
 30 32  1  0  0  0  0
 31 33  1  0  0  0  0
 32 34  2  0  0  0  0
 32 35  1  0  0  0  0
 35 36  1  0  0  0  0
 36 37  1  0  0  0  0
 37 38  1  0  0  0  0
 38 39  1  0  0  0  0
 39 40  1  0  0  0  0
 40 41  1  0  0  0  0
 41 42  2  0  0  0  0
 41 43  1  0  0  0  0
 11 13  1  0  0  0  0
 13 17  1  0  0  0  0
 15 18  1  0  0  0  0
 24 27  1  0  0  0  0
 29 31  1  0  0  0  0
M  END
>  <MolRegNo>
1950509

>  <m>
=

>  <Value>
92.26

>  <Unit>
nM

>  <Type>
Ki

>  <pValue>
7.04

>  <Ligand Efficiency>
0.22

>  <Binding Efficiency>
11.54

>  <Surface Efficiency>
5.05

>  <Assay Index>
949887

>  <Assay Category>


>  <Assay Organism>
Homo sapiens

>  <Target ID>
19

>  <Target Name>
Estrogen receptor alpha

>  <Target Organism>
Homo sapiens

>  <Target Description>
Target is a single protein chain

>  <Sequence Accession>
P03372

>  <Reference>
J Med Chem 58 (11), 4550-4572 (2015)

>  <Pubmed ID>
25993269

>  <DOI>
10.1021/acs.jmedchem.5b00099

$$$$
1950510
Actelion Java MolfileCreator 1.0

 43 47  0  0  0  0  0  0  0  0999 V2000
    0.0000   -0.0000   -0.0000 S   0  0  0  0  0  0  0  0  0  0  0  0
   -0.0862   -1.2309   -0.0000 O   0  0  0  0  0  0  0  0  0  0  0  0
   -1.1201   -0.5416   -0.0000 O   0  0  0  0  0  0  0  0  0  0  0  0
   -1.3047    0.8616   -0.0000 O   0  0  0  0  0  0  0  0  0  0  0  0
    1.3786    0.7016   -0.0000 C   0  0  0  0  0  0  0  0  0  0  0  0
   -2.7080    0.1846   -0.0000 C   0  0  0  0  0  0  0  0  0  0  0  0
    2.5726   -0.0123   -0.0000 C   0  0  0  0  0  0  0  0  0  0  0  0
    1.3663    2.2772   -0.0000 C   0  0  0  0  0  0  0  0  0  0  0  0
   -4.0127    1.0463   -0.0000 C   0  0  0  0  0  0  0  0  0  0  0  0
   -2.8064   -1.3540   -0.0000 C   0  0  0  0  0  0  0  0  0  0  0  0
    3.2003    1.4648   -0.0000 O   0  0  0  0  0  0  0  0  0  0  0  0
    3.8896    0.7262   -0.0000 C   0  0  0  0  0  0  0  0  0  0  0  0
    2.5603    3.0649   -0.0000 C   0  0  0  0  0  0  0  0  0  0  0  0
   -3.9512    2.3018   -0.0000 O   0  0  0  0  0  0  0  0  0  0  0  0
   -5.4159    0.3570   -0.0000 C   0  0  0  0  0  0  0  0  0  0  0  0
   -4.2097   -2.0433   -0.0000 C   0  0  0  0  0  0  0  0  0  0  0  0
    5.3790    0.2954   -0.0000 C   0  0  0  0  0  0  0  0  0  0  0  0
    3.8773    2.3018   -0.0000 C   0  0  0  0  0  0  0  0  0  0  0  0
   -5.5144   -1.1817   -0.0000 C   0  0  0  0  0  0  0  0  0  0  0  0
    5.4775   -1.2555   -0.0000 C   0  0  0  0  0  0  0  0  0  0  0  0
    6.6591    1.1570   -0.0000 C   0  0  0  0  0  0  0  0  0  0  0  0
    5.3667    2.7572   -0.0000 C   0  0  0  0  0  0  0  0  0  0  0  0
    6.8561   -1.9202   -0.0000 C   0  0  0  0  0  0  0  0  0  0  0  0
    8.0377    0.4924   -0.0000 C   0  0  0  0  0  0  0  0  0  0  0  0
    5.4652    4.3327   -0.0000 C   0  0  0  0  0  0  0  0  0  0  0  0
    6.6468    1.9202   -0.0000 C   0  0  0  0  0  0  0  0  0  0  0  0
    8.1239   -1.0340   -0.0000 C   0  0  0  0  0  0  0  0  0  0  0  0
    6.8438    5.0220   -0.0000 C   0  0  0  0  0  0  0  0  0  0  0  0
    8.0254    2.6095   -0.0000 C   0  0  0  0  0  0  0  0  0  0  0  0
    9.5025   -1.6986   -0.0000 N   0  0  0  0  0  0  0  0  0  0  0  0
    8.1116    4.1604   -0.0000 C   0  0  0  0  0  0  0  0  0  0  0  0
   10.7703   -0.8124   -0.0000 C   0  0  0  0  0  0  0  0  0  0  0  0
    9.2194    4.7143   -0.0000 O   0  0  0  0  0  0  0  0  0  0  0  0
   10.6719    0.4431   -0.0000 O   0  0  0  0  0  0  0  0  0  0  0  0
   12.1489   -1.4771   -0.0000 C   0  0  0  0  0  0  0  0  0  0  0  0
   13.4167   -0.5908   -0.0000 C   0  0  0  0  0  0  0  0  0  0  0  0
   14.7954   -1.2555   -0.0000 C   0  0  0  0  0  0  0  0  0  0  0  0
   16.0632   -0.3693   -0.0000 C   0  0  0  0  0  0  0  0  0  0  0  0
   17.4418   -1.0340   -0.0000 C   0  0  0  0  0  0  0  0  0  0  0  0
   18.7096   -0.1477   -0.0000 C   0  0  0  0  0  0  0  0  0  0  0  0
   20.0882   -0.8124   -0.0000 C   0  0  0  0  0  0  0  0  0  0  0  0
   21.0975   -0.0985   -0.0000 O   0  0  0  0  0  0  0  0  0  0  0  0
   20.1621   -2.0433   -0.0000 O   0  0  0  0  0  0  0  0  0  0  0  0
  1  2  2  0  0  0  0
  1  3  2  0  0  0  0
  1  4  1  0  0  0  0
  1  5  1  0  0  0  0
  4  6  1  0  0  0  0
  5  7  1  0  0  0  0
  5  8  1  0  0  0  0
  6  9  2  0  0  0  0
  6 10  1  0  0  0  0
  7 11  1  0  0  0  0
  7 12  1  0  0  0  0
  8 13  1  0  0  0  0
  9 14  1  0  0  0  0
  9 15  1  0  0  0  0
 10 16  2  0  0  0  0
 12 17  1  0  0  0  0
 12 18  2  0  0  0  0
 15 19  2  0  0  0  0
 17 20  2  0  0  0  0
 17 21  1  0  0  0  0
 18 22  1  0  0  0  0
 20 23  1  0  0  0  0
 21 24  2  0  0  0  0
 22 25  2  0  0  0  0
 22 26  1  0  0  0  0
 23 27  2  0  0  0  0
 25 28  1  0  0  0  0
 26 29  2  0  0  0  0
 27 30  1  0  0  0  0
 28 31  2  0  0  0  0
 30 32  1  0  0  0  0
 31 33  1  0  0  0  0
 32 34  2  0  0  0  0
 32 35  1  0  0  0  0
 35 36  1  0  0  0  0
 36 37  1  0  0  0  0
 37 38  1  0  0  0  0
 38 39  1  0  0  0  0
 39 40  1  0  0  0  0
 40 41  1  0  0  0  0
 41 42  2  0  0  0  0
 41 43  1  0  0  0  0
 11 13  1  0  0  0  0
 13 18  1  0  0  0  0
 16 19  1  0  0  0  0
 24 27  1  0  0  0  0
 29 31  1  0  0  0  0
M  END
>  <MolRegNo>
1950510

>  <m>
=

>  <Value>
1192.3

>  <Unit>
nM

>  <Type>
Ki

>  <pValue>
5.92

>  <Ligand Efficiency>
0.19

>  <Binding Efficiency>
9.75

>  <Surface Efficiency>
3.71

>  <Assay Index>
949887

>  <Assay Category>


>  <Assay Organism>
Homo sapiens

>  <Target ID>
19

>  <Target Name>
Estrogen receptor alpha

>  <Target Organism>
Homo sapiens

>  <Target Description>
Target is a single protein chain

>  <Sequence Accession>
P03372

>  <Reference>
J Med Chem 58 (11), 4550-4572 (2015)

>  <Pubmed ID>
25993269

>  <DOI>
10.1021/acs.jmedchem.5b00099

$$$$
1950511
Actelion Java MolfileCreator 1.0

 43 47  0  0  0  0  0  0  0  0999 V2000
    0.0000   -0.0000   -0.0000 Cl  0  0  0  0  0  0  0  0  0  0  0  0
    1.0972    0.5671   -0.0000 C   0  0  0  0  0  0  0  0  0  0  0  0
    1.1712    2.1329   -0.0000 C   0  0  0  0  0  0  0  0  0  0  0  0
    2.3794   -0.2712   -0.0000 C   0  0  0  0  0  0  0  0  0  0  0  0
    2.5520    2.8479   -0.0000 C   0  0  0  0  0  0  0  0  0  0  0  0
    3.7602    0.4438   -0.0000 C   0  0  0  0  0  0  0  0  0  0  0  0
    3.8342    2.0096   -0.0000 C   0  0  0  0  0  0  0  0  0  0  0  0
    5.2150    2.7123   -0.0000 O   0  0  0  0  0  0  0  0  0  0  0  0
    6.4972    1.8740   -0.0000 S   0  0  0  0  0  0  0  0  0  0  0  0
    6.4109    0.6411   -0.0000 O   0  0  0  0  0  0  0  0  0  0  0  0
    5.3753    1.3315   -0.0000 O   0  0  0  0  0  0  0  0  0  0  0  0
    7.8780    2.5767   -0.0000 C   0  0  0  0  0  0  0  0  0  0  0  0
    9.0739    1.8616   -0.0000 C   0  0  0  0  0  0  0  0  0  0  0  0
    7.8657    4.1548   -0.0000 C   0  0  0  0  0  0  0  0  0  0  0  0
    9.7026    3.3411   -0.0000 O   0  0  0  0  0  0  0  0  0  0  0  0
   10.3930    2.6013   -0.0000 C   0  0  0  0  0  0  0  0  0  0  0  0
    9.0615    4.9438   -0.0000 C   0  0  0  0  0  0  0  0  0  0  0  0
   11.8848    2.1698   -0.0000 C   0  0  0  0  0  0  0  0  0  0  0  0
   10.3807    4.1794   -0.0000 C   0  0  0  0  0  0  0  0  0  0  0  0
   11.9834    0.6164   -0.0000 C   0  0  0  0  0  0  0  0  0  0  0  0
   13.1670    3.0328   -0.0000 C   0  0  0  0  0  0  0  0  0  0  0  0
   11.8725    4.6356   -0.0000 C   0  0  0  0  0  0  0  0  0  0  0  0
   13.3642   -0.0493   -0.0000 C   0  0  0  0  0  0  0  0  0  0  0  0
   14.5478    2.3671   -0.0000 C   0  0  0  0  0  0  0  0  0  0  0  0
   11.9711    6.2136   -0.0000 C   0  0  0  0  0  0  0  0  0  0  0  0
   13.1547    3.7972   -0.0000 C   0  0  0  0  0  0  0  0  0  0  0  0
   14.6341    0.8383   -0.0000 C   0  0  0  0  0  0  0  0  0  0  0  0
   13.3519    6.9040   -0.0000 C   0  0  0  0  0  0  0  0  0  0  0  0
   14.5355    4.4876   -0.0000 C   0  0  0  0  0  0  0  0  0  0  0  0
   16.0149    0.1726   -0.0000 N   0  0  0  0  0  0  0  0  0  0  0  0
   14.6218    6.0410   -0.0000 C   0  0  0  0  0  0  0  0  0  0  0  0
   17.2847    1.0603   -0.0000 C   0  0  0  0  0  0  0  0  0  0  0  0
   15.7313    6.5958   -0.0000 O   0  0  0  0  0  0  0  0  0  0  0  0
   17.1861    2.3178   -0.0000 O   0  0  0  0  0  0  0  0  0  0  0  0
   18.6656    0.3945   -0.0000 C   0  0  0  0  0  0  0  0  0  0  0  0
   19.9354    1.2822   -0.0000 C   0  0  0  0  0  0  0  0  0  0  0  0
   21.3162    0.6164   -0.0000 C   0  0  0  0  0  0  0  0  0  0  0  0
   22.5861    1.5041   -0.0000 C   0  0  0  0  0  0  0  0  0  0  0  0
   23.9669    0.8383   -0.0000 C   0  0  0  0  0  0  0  0  0  0  0  0
   25.2367    1.7260   -0.0000 C   0  0  0  0  0  0  0  0  0  0  0  0
   26.6175    1.0603   -0.0000 C   0  0  0  0  0  0  0  0  0  0  0  0
   27.6285    1.7753   -0.0000 O   0  0  0  0  0  0  0  0  0  0  0  0
   26.6915   -0.1726   -0.0000 O   0  0  0  0  0  0  0  0  0  0  0  0
  1  2  1  0  0  0  0
  2  3  2  0  0  0  0
  2  4  1  0  0  0  0
  3  5  1  0  0  0  0
  4  6  2  0  0  0  0
  5  7  2  0  0  0  0
  7  8  1  0  0  0  0
  8  9  1  0  0  0  0
  9 10  2  0  0  0  0
  9 11  2  0  0  0  0
  9 12  1  0  0  0  0
 12 13  1  0  0  0  0
 12 14  1  0  0  0  0
 13 15  1  0  0  0  0
 13 16  1  0  0  0  0
 14 17  1  0  0  0  0
 16 18  1  0  0  0  0
 16 19  2  0  0  0  0
 18 20  2  0  0  0  0
 18 21  1  0  0  0  0
 19 22  1  0  0  0  0
 20 23  1  0  0  0  0
 21 24  2  0  0  0  0
 22 25  2  0  0  0  0
 22 26  1  0  0  0  0
 23 27  2  0  0  0  0
 25 28  1  0  0  0  0
 26 29  2  0  0  0  0
 27 30  1  0  0  0  0
 28 31  2  0  0  0  0
 30 32  1  0  0  0  0
 31 33  1  0  0  0  0
 32 34  2  0  0  0  0
 32 35  1  0  0  0  0
 35 36  1  0  0  0  0
 36 37  1  0  0  0  0
 37 38  1  0  0  0  0
 38 39  1  0  0  0  0
 39 40  1  0  0  0  0
 40 41  1  0  0  0  0
 41 42  2  0  0  0  0
 41 43  1  0  0  0  0
  6  7  1  0  0  0  0
 15 17  1  0  0  0  0
 17 19  1  0  0  0  0
 24 27  1  0  0  0  0
 29 31  1  0  0  0  0
M  END
>  <MolRegNo>
1950511

>  <m>
=

>  <Value>
126.02

>  <Unit>
nM

>  <Type>
Ki

>  <pValue>
6.9

>  <Ligand Efficiency>
0.22

>  <Binding Efficiency>
11.02

>  <Surface Efficiency>
4.96

>  <Assay Index>
949887

>  <Assay Category>


>  <Assay Organism>
Homo sapiens

>  <Target ID>
19

>  <Target Name>
Estrogen receptor alpha

>  <Target Organism>
Homo sapiens

>  <Target Description>
Target is a single protein chain

>  <Sequence Accession>
P03372

>  <Reference>
J Med Chem 58 (11), 4550-4572 (2015)

>  <Pubmed ID>
25993269

>  <DOI>
10.1021/acs.jmedchem.5b00099

$$$$
1950512
Actelion Java MolfileCreator 1.0

 43 47  0  0  0  0  0  0  0  0999 V2000
    0.0000   -0.0000   -0.0000 Br  0  0  0  0  0  0  0  0  0  0  0  0
    1.0972    0.5671   -0.0000 C   0  0  0  0  0  0  0  0  0  0  0  0
    1.1712    2.1329   -0.0000 C   0  0  0  0  0  0  0  0  0  0  0  0
    2.3794   -0.2712   -0.0000 C   0  0  0  0  0  0  0  0  0  0  0  0
    2.5520    2.8479   -0.0000 C   0  0  0  0  0  0  0  0  0  0  0  0
    3.7602    0.4438   -0.0000 C   0  0  0  0  0  0  0  0  0  0  0  0
    3.8342    2.0096   -0.0000 C   0  0  0  0  0  0  0  0  0  0  0  0
    5.2150    2.7123   -0.0000 O   0  0  0  0  0  0  0  0  0  0  0  0
    6.4972    1.8740   -0.0000 S   0  0  0  0  0  0  0  0  0  0  0  0
    6.4109    0.6411   -0.0000 O   0  0  0  0  0  0  0  0  0  0  0  0
    5.3753    1.3315   -0.0000 O   0  0  0  0  0  0  0  0  0  0  0  0
    7.8780    2.5767   -0.0000 C   0  0  0  0  0  0  0  0  0  0  0  0
    9.0739    1.8616   -0.0000 C   0  0  0  0  0  0  0  0  0  0  0  0
    7.8657    4.1548   -0.0000 C   0  0  0  0  0  0  0  0  0  0  0  0
    9.7026    3.3411   -0.0000 O   0  0  0  0  0  0  0  0  0  0  0  0
   10.3930    2.6013   -0.0000 C   0  0  0  0  0  0  0  0  0  0  0  0
    9.0615    4.9438   -0.0000 C   0  0  0  0  0  0  0  0  0  0  0  0
   11.8848    2.1698   -0.0000 C   0  0  0  0  0  0  0  0  0  0  0  0
   10.3807    4.1794   -0.0000 C   0  0  0  0  0  0  0  0  0  0  0  0
   11.9834    0.6164   -0.0000 C   0  0  0  0  0  0  0  0  0  0  0  0
   13.1670    3.0328   -0.0000 C   0  0  0  0  0  0  0  0  0  0  0  0
   11.8725    4.6356   -0.0000 C   0  0  0  0  0  0  0  0  0  0  0  0
   13.3642   -0.0493   -0.0000 C   0  0  0  0  0  0  0  0  0  0  0  0
   14.5478    2.3671   -0.0000 C   0  0  0  0  0  0  0  0  0  0  0  0
   11.9711    6.2136   -0.0000 C   0  0  0  0  0  0  0  0  0  0  0  0
   13.1547    3.7972   -0.0000 C   0  0  0  0  0  0  0  0  0  0  0  0
   14.6341    0.8383   -0.0000 C   0  0  0  0  0  0  0  0  0  0  0  0
   13.3519    6.9040   -0.0000 C   0  0  0  0  0  0  0  0  0  0  0  0
   14.5355    4.4876   -0.0000 C   0  0  0  0  0  0  0  0  0  0  0  0
   16.0149    0.1726   -0.0000 N   0  0  0  0  0  0  0  0  0  0  0  0
   14.6218    6.0410   -0.0000 C   0  0  0  0  0  0  0  0  0  0  0  0
   17.2847    1.0603   -0.0000 C   0  0  0  0  0  0  0  0  0  0  0  0
   15.7313    6.5958   -0.0000 O   0  0  0  0  0  0  0  0  0  0  0  0
   17.1861    2.3178   -0.0000 O   0  0  0  0  0  0  0  0  0  0  0  0
   18.6656    0.3945   -0.0000 C   0  0  0  0  0  0  0  0  0  0  0  0
   19.9354    1.2822   -0.0000 C   0  0  0  0  0  0  0  0  0  0  0  0
   21.3162    0.6164   -0.0000 C   0  0  0  0  0  0  0  0  0  0  0  0
   22.5861    1.5041   -0.0000 C   0  0  0  0  0  0  0  0  0  0  0  0
   23.9669    0.8383   -0.0000 C   0  0  0  0  0  0  0  0  0  0  0  0
   25.2367    1.7260   -0.0000 C   0  0  0  0  0  0  0  0  0  0  0  0
   26.6175    1.0603   -0.0000 C   0  0  0  0  0  0  0  0  0  0  0  0
   27.6285    1.7753   -0.0000 O   0  0  0  0  0  0  0  0  0  0  0  0
   26.6915   -0.1726   -0.0000 O   0  0  0  0  0  0  0  0  0  0  0  0
  1  2  1  0  0  0  0
  2  3  2  0  0  0  0
  2  4  1  0  0  0  0
  3  5  1  0  0  0  0
  4  6  2  0  0  0  0
  5  7  2  0  0  0  0
  7  8  1  0  0  0  0
  8  9  1  0  0  0  0
  9 10  2  0  0  0  0
  9 11  2  0  0  0  0
  9 12  1  0  0  0  0
 12 13  1  0  0  0  0
 12 14  1  0  0  0  0
 13 15  1  0  0  0  0
 13 16  1  0  0  0  0
 14 17  1  0  0  0  0
 16 18  1  0  0  0  0
 16 19  2  0  0  0  0
 18 20  2  0  0  0  0
 18 21  1  0  0  0  0
 19 22  1  0  0  0  0
 20 23  1  0  0  0  0
 21 24  2  0  0  0  0
 22 25  2  0  0  0  0
 22 26  1  0  0  0  0
 23 27  2  0  0  0  0
 25 28  1  0  0  0  0
 26 29  2  0  0  0  0
 27 30  1  0  0  0  0
 28 31  2  0  0  0  0
 30 32  1  0  0  0  0
 31 33  1  0  0  0  0
 32 34  2  0  0  0  0
 32 35  1  0  0  0  0
 35 36  1  0  0  0  0
 36 37  1  0  0  0  0
 37 38  1  0  0  0  0
 38 39  1  0  0  0  0
 39 40  1  0  0  0  0
 40 41  1  0  0  0  0
 41 42  2  0  0  0  0
 41 43  1  0  0  0  0
  6  7  1  0  0  0  0
 15 17  1  0  0  0  0
 17 19  1  0  0  0  0
 24 27  1  0  0  0  0
 29 31  1  0  0  0  0
M  END
>  <MolRegNo>
1950512

>  <m>
=

>  <Value>
125.51

>  <Unit>
nM

>  <Type>
Ki

>  <pValue>
6.9

>  <Ligand Efficiency>
0.22

>  <Binding Efficiency>
10.29

>  <Surface Efficiency>
4.96

>  <Assay Index>
949887

>  <Assay Category>


>  <Assay Organism>
Homo sapiens

>  <Target ID>
19

>  <Target Name>
Estrogen receptor alpha

>  <Target Organism>
Homo sapiens

>  <Target Description>
Target is a single protein chain

>  <Sequence Accession>
P03372

>  <Reference>
J Med Chem 58 (11), 4550-4572 (2015)

>  <Pubmed ID>
25993269

>  <DOI>
10.1021/acs.jmedchem.5b00099

$$$$
1950513
Actelion Java MolfileCreator 1.0

 46 50  0  0  0  0  0  0  0  0999 V2000
    0.0000   -0.0000   -0.0000 S   0  0  0  0  0  0  0  0  0  0  0  0
   -0.0867   -1.2385   -0.0000 O   0  0  0  0  0  0  0  0  0  0  0  0
   -1.1271   -0.5450   -0.0000 O   0  0  0  0  0  0  0  0  0  0  0  0
   -1.3128    0.8670   -0.0000 O   0  0  0  0  0  0  0  0  0  0  0  0
    1.3872    0.7060   -0.0000 C   0  0  0  0  0  0  0  0  0  0  0  0
   -2.7248    0.1858   -0.0000 C   0  0  0  0  0  0  0  0  0  0  0  0
    2.5885   -0.0124   -0.0000 C   0  0  0  0  0  0  0  0  0  0  0  0
    1.3748    2.2913   -0.0000 C   0  0  0  0  0  0  0  0  0  0  0  0
   -4.0376    1.0528   -0.0000 C   0  0  0  0  0  0  0  0  0  0  0  0
   -2.8239   -1.3624   -0.0000 C   0  0  0  0  0  0  0  0  0  0  0  0
    3.2202    1.4739   -0.0000 O   0  0  0  0  0  0  0  0  0  0  0  0
    3.9138    0.7307   -0.0000 C   0  0  0  0  0  0  0  0  0  0  0  0
    2.5762    3.0840   -0.0000 C   0  0  0  0  0  0  0  0  0  0  0  0
   -5.4496    0.3592   -0.0000 C   0  0  0  0  0  0  0  0  0  0  0  0
   -4.2358   -2.0560   -0.0000 C   0  0  0  0  0  0  0  0  0  0  0  0
    5.4124    0.2972   -0.0000 C   0  0  0  0  0  0  0  0  0  0  0  0
    3.9014    2.3161   -0.0000 C   0  0  0  0  0  0  0  0  0  0  0  0
   -5.5486   -1.1890   -0.0000 C   0  0  0  0  0  0  0  0  0  0  0  0
    5.5115   -1.2633   -0.0000 C   0  0  0  0  0  0  0  0  0  0  0  0
    6.7005    1.1642   -0.0000 C   0  0  0  0  0  0  0  0  0  0  0  0
    5.4000    2.7743   -0.0000 C   0  0  0  0  0  0  0  0  0  0  0  0
   -6.9606   -1.8826   -0.0000 C   0  0  0  0  0  0  0  0  0  0  0  0
    6.8986   -1.9321   -0.0000 C   0  0  0  0  0  0  0  0  0  0  0  0
    8.0876    0.4954   -0.0000 C   0  0  0  0  0  0  0  0  0  0  0  0
    5.4991    4.3596   -0.0000 C   0  0  0  0  0  0  0  0  0  0  0  0
    6.6881    1.9321   -0.0000 C   0  0  0  0  0  0  0  0  0  0  0  0
   -8.0133   -1.1890   -0.0000 F   0  0  0  0  0  0  0  0  0  0  0  0
   -7.0473   -3.1211   -0.0000 F   0  0  0  0  0  0  0  0  0  0  0  0
   -8.0876   -2.4275   -0.0000 F   0  0  0  0  0  0  0  0  0  0  0  0
    8.1743   -1.0404   -0.0000 C   0  0  0  0  0  0  0  0  0  0  0  0
    6.8863    5.0532   -0.0000 C   0  0  0  0  0  0  0  0  0  0  0  0
    8.0752    2.6257   -0.0000 C   0  0  0  0  0  0  0  0  0  0  0  0
    9.5615   -1.7092   -0.0000 N   0  0  0  0  0  0  0  0  0  0  0  0
    8.1619    4.1862   -0.0000 C   0  0  0  0  0  0  0  0  0  0  0  0
   10.8372   -0.8174   -0.0000 C   0  0  0  0  0  0  0  0  0  0  0  0
    9.2766    4.7436   -0.0000 O   0  0  0  0  0  0  0  0  0  0  0  0
   10.7381    0.4459   -0.0000 O   0  0  0  0  0  0  0  0  0  0  0  0
   12.2243   -1.4862   -0.0000 C   0  0  0  0  0  0  0  0  0  0  0  0
   13.5000   -0.5945   -0.0000 C   0  0  0  0  0  0  0  0  0  0  0  0
   14.8872   -1.2633   -0.0000 C   0  0  0  0  0  0  0  0  0  0  0  0
   16.1629   -0.3716   -0.0000 C   0  0  0  0  0  0  0  0  0  0  0  0
   17.5500   -1.0404   -0.0000 C   0  0  0  0  0  0  0  0  0  0  0  0
   18.8257   -0.1486   -0.0000 C   0  0  0  0  0  0  0  0  0  0  0  0
   20.2129   -0.8174   -0.0000 C   0  0  0  0  0  0  0  0  0  0  0  0
   21.2285   -0.0991   -0.0000 O   0  0  0  0  0  0  0  0  0  0  0  0
   20.2872   -2.0560   -0.0000 O   0  0  0  0  0  0  0  0  0  0  0  0
  1  2  2  0  0  0  0
  1  3  2  0  0  0  0
  1  4  1  0  0  0  0
  1  5  1  0  0  0  0
  4  6  1  0  0  0  0
  5  7  1  0  0  0  0
  5  8  1  0  0  0  0
  6  9  2  0  0  0  0
  6 10  1  0  0  0  0
  7 11  1  0  0  0  0
  7 12  1  0  0  0  0
  8 13  1  0  0  0  0
  9 14  1  0  0  0  0
 10 15  2  0  0  0  0
 12 16  1  0  0  0  0
 12 17  2  0  0  0  0
 14 18  2  0  0  0  0
 16 19  2  0  0  0  0
 16 20  1  0  0  0  0
 17 21  1  0  0  0  0
 18 22  1  0  0  0  0
 19 23  1  0  0  0  0
 20 24  2  0  0  0  0
 21 25  2  0  0  0  0
 21 26  1  0  0  0  0
 22 27  1  0  0  0  0
 22 28  1  0  0  0  0
 22 29  1  0  0  0  0
 23 30  2  0  0  0  0
 25 31  1  0  0  0  0
 26 32  2  0  0  0  0
 30 33  1  0  0  0  0
 31 34  2  0  0  0  0
 33 35  1  0  0  0  0
 34 36  1  0  0  0  0
 35 37  2  0  0  0  0
 35 38  1  0  0  0  0
 38 39  1  0  0  0  0
 39 40  1  0  0  0  0
 40 41  1  0  0  0  0
 41 42  1  0  0  0  0
 42 43  1  0  0  0  0
 43 44  1  0  0  0  0
 44 45  2  0  0  0  0
 44 46  1  0  0  0  0
 11 13  1  0  0  0  0
 13 17  1  0  0  0  0
 15 18  1  0  0  0  0
 24 30  1  0  0  0  0
 32 34  1  0  0  0  0
M  END
>  <MolRegNo>
1950513

>  <m>
=

>  <Value>
1722.2

>  <Unit>
nM

>  <Type>
Ki

>  <pValue>
5.76

>  <Ligand Efficiency>
0.17

>  <Binding Efficiency>
8.74

>  <Surface Efficiency>
4.14

>  <Assay Index>
949887

>  <Assay Category>


>  <Assay Organism>
Homo sapiens

>  <Target ID>
19

>  <Target Name>
Estrogen receptor alpha

>  <Target Organism>
Homo sapiens

>  <Target Description>
Target is a single protein chain

>  <Sequence Accession>
P03372

>  <Reference>
J Med Chem 58 (11), 4550-4572 (2015)

>  <Pubmed ID>
25993269

>  <DOI>
10.1021/acs.jmedchem.5b00099

$$$$
1950514
Actelion Java MolfileCreator 1.0

 46 50  0  0  0  0  0  0  0  0999 V2000
    0.0000   -0.0000   -0.0000 S   0  0  0  0  0  0  0  0  0  0  0  0
   -0.0867   -1.2383   -0.0000 O   0  0  0  0  0  0  0  0  0  0  0  0
   -1.1269   -0.5449   -0.0000 O   0  0  0  0  0  0  0  0  0  0  0  0
   -1.3126    0.8668   -0.0000 O   0  0  0  0  0  0  0  0  0  0  0  0
    1.3869    0.7058   -0.0000 C   0  0  0  0  0  0  0  0  0  0  0  0
   -2.7243    0.1857   -0.0000 C   0  0  0  0  0  0  0  0  0  0  0  0
    2.5881   -0.0124   -0.0000 C   0  0  0  0  0  0  0  0  0  0  0  0
    1.3745    2.2909   -0.0000 C   0  0  0  0  0  0  0  0  0  0  0  0
   -4.0369    1.0526   -0.0000 C   0  0  0  0  0  0  0  0  0  0  0  0
   -2.8233   -1.3621   -0.0000 C   0  0  0  0  0  0  0  0  0  0  0  0
    3.2196    1.4736   -0.0000 O   0  0  0  0  0  0  0  0  0  0  0  0
    3.9130    0.7306   -0.0000 C   0  0  0  0  0  0  0  0  0  0  0  0
    2.5757    3.0834   -0.0000 C   0  0  0  0  0  0  0  0  0  0  0  0
   -5.4485    0.3591   -0.0000 C   0  0  0  0  0  0  0  0  0  0  0  0
   -3.9626    2.6252   -0.0000 C   0  0  0  0  0  0  0  0  0  0  0  0
   -4.2350   -2.0556   -0.0000 C   0  0  0  0  0  0  0  0  0  0  0  0
    5.4114    0.2972   -0.0000 C   0  0  0  0  0  0  0  0  0  0  0  0
    3.9007    2.3156   -0.0000 C   0  0  0  0  0  0  0  0  0  0  0  0
   -5.5476   -1.1888   -0.0000 C   0  0  0  0  0  0  0  0  0  0  0  0
   -2.8605    3.1948   -0.0000 F   0  0  0  0  0  0  0  0  0  0  0  0
   -5.0151    3.3187   -0.0000 F   0  0  0  0  0  0  0  0  0  0  0  0
   -3.9007    3.8883   -0.0000 F   0  0  0  0  0  0  0  0  0  0  0  0
    5.5105   -1.2631   -0.0000 C   0  0  0  0  0  0  0  0  0  0  0  0
    6.6992    1.1640   -0.0000 C   0  0  0  0  0  0  0  0  0  0  0  0
    5.3990    2.7738   -0.0000 C   0  0  0  0  0  0  0  0  0  0  0  0
    6.8974   -1.9318   -0.0000 C   0  0  0  0  0  0  0  0  0  0  0  0
    8.0861    0.4953   -0.0000 C   0  0  0  0  0  0  0  0  0  0  0  0
    5.4981    4.3588   -0.0000 C   0  0  0  0  0  0  0  0  0  0  0  0
    6.6869    1.9318   -0.0000 C   0  0  0  0  0  0  0  0  0  0  0  0
    8.1728   -1.0402   -0.0000 C   0  0  0  0  0  0  0  0  0  0  0  0
    6.8850    5.0523   -0.0000 C   0  0  0  0  0  0  0  0  0  0  0  0
    8.0738    2.6252   -0.0000 C   0  0  0  0  0  0  0  0  0  0  0  0
    9.5597   -1.7089   -0.0000 N   0  0  0  0  0  0  0  0  0  0  0  0
    8.1604    4.1855   -0.0000 C   0  0  0  0  0  0  0  0  0  0  0  0
   10.8352   -0.8173   -0.0000 C   0  0  0  0  0  0  0  0  0  0  0  0
    9.2749    4.7427   -0.0000 O   0  0  0  0  0  0  0  0  0  0  0  0
   10.7361    0.4458   -0.0000 O   0  0  0  0  0  0  0  0  0  0  0  0
   12.2221   -1.4860   -0.0000 C   0  0  0  0  0  0  0  0  0  0  0  0
   13.4975   -0.5944   -0.0000 C   0  0  0  0  0  0  0  0  0  0  0  0
   14.8844   -1.2631   -0.0000 C   0  0  0  0  0  0  0  0  0  0  0  0
   16.1599   -0.3715   -0.0000 C   0  0  0  0  0  0  0  0  0  0  0  0
   17.5468   -1.0402   -0.0000 C   0  0  0  0  0  0  0  0  0  0  0  0
   18.8223   -0.1486   -0.0000 C   0  0  0  0  0  0  0  0  0  0  0  0
   20.2092   -0.8173   -0.0000 C   0  0  0  0  0  0  0  0  0  0  0  0
   21.2246   -0.0991   -0.0000 O   0  0  0  0  0  0  0  0  0  0  0  0
   20.2835   -2.0556   -0.0000 O   0  0  0  0  0  0  0  0  0  0  0  0
  1  2  2  0  0  0  0
  1  3  2  0  0  0  0
  1  4  1  0  0  0  0
  1  5  1  0  0  0  0
  4  6  1  0  0  0  0
  5  7  1  0  0  0  0
  5  8  1  0  0  0  0
  6  9  2  0  0  0  0
  6 10  1  0  0  0  0
  7 11  1  0  0  0  0
  7 12  1  0  0  0  0
  8 13  1  0  0  0  0
  9 14  1  0  0  0  0
  9 15  1  0  0  0  0
 10 16  2  0  0  0  0
 12 17  1  0  0  0  0
 12 18  2  0  0  0  0
 14 19  2  0  0  0  0
 15 20  1  0  0  0  0
 15 21  1  0  0  0  0
 15 22  1  0  0  0  0
 17 23  2  0  0  0  0
 17 24  1  0  0  0  0
 18 25  1  0  0  0  0
 23 26  1  0  0  0  0
 24 27  2  0  0  0  0
 25 28  2  0  0  0  0
 25 29  1  0  0  0  0
 26 30  2  0  0  0  0
 28 31  1  0  0  0  0
 29 32  2  0  0  0  0
 30 33  1  0  0  0  0
 31 34  2  0  0  0  0
 33 35  1  0  0  0  0
 34 36  1  0  0  0  0
 35 37  2  0  0  0  0
 35 38  1  0  0  0  0
 38 39  1  0  0  0  0
 39 40  1  0  0  0  0
 40 41  1  0  0  0  0
 41 42  1  0  0  0  0
 42 43  1  0  0  0  0
 43 44  1  0  0  0  0
 44 45  2  0  0  0  0
 44 46  1  0  0  0  0
 11 13  1  0  0  0  0
 13 18  1  0  0  0  0
 16 19  1  0  0  0  0
 27 30  1  0  0  0  0
 32 34  1  0  0  0  0
M  END
>  <MolRegNo>
1950514

>  <m>
=

>  <Value>
3875

>  <Unit>
nM

>  <Type>
Ki

>  <pValue>
5.41

>  <Ligand Efficiency>
0.16

>  <Binding Efficiency>
8.2

>  <Surface Efficiency>
3.89

>  <Assay Index>
949887

>  <Assay Category>


>  <Assay Organism>
Homo sapiens

>  <Target ID>
19

>  <Target Name>
Estrogen receptor alpha

>  <Target Organism>
Homo sapiens

>  <Target Description>
Target is a single protein chain

>  <Sequence Accession>
P03372

>  <Reference>
J Med Chem 58 (11), 4550-4572 (2015)

>  <Pubmed ID>
25993269

>  <DOI>
10.1021/acs.jmedchem.5b00099

$$$$
1950516
Actelion Java MolfileCreator 1.0

 46 51  0  0  0  0  0  0  0  0999 V2000
    0.0000   -0.0000   -0.0000 S   0  0  0  0  0  0  0  0  0  0  0  0
   -0.0855   -1.2212   -0.0000 O   0  0  0  0  0  0  0  0  0  0  0  0
   -1.1113   -0.5373   -0.0000 O   0  0  0  0  0  0  0  0  0  0  0  0
   -1.2945    0.8549   -0.0000 O   0  0  0  0  0  0  0  0  0  0  0  0
    1.3678    0.6961   -0.0000 C   0  0  0  0  0  0  0  0  0  0  0  0
   -2.6867    0.1832   -0.0000 C   0  0  0  0  0  0  0  0  0  0  0  0
    2.5523   -0.0122   -0.0000 C   0  0  0  0  0  0  0  0  0  0  0  0
    1.3556    2.2593   -0.0000 C   0  0  0  0  0  0  0  0  0  0  0  0
   -3.9812    1.0502   -0.0000 C   0  0  0  0  0  0  0  0  0  0  0  0
   -2.7844   -1.3556   -0.0000 C   0  0  0  0  0  0  0  0  0  0  0  0
    3.1752    1.4533   -0.0000 O   0  0  0  0  0  0  0  0  0  0  0  0
    3.8591    0.7205   -0.0000 C   0  0  0  0  0  0  0  0  0  0  0  0
    2.5401    3.0408   -0.0000 C   0  0  0  0  0  0  0  0  0  0  0  0
   -5.3734    0.3786   -0.0000 C   0  0  0  0  0  0  0  0  0  0  0  0
   -3.8957    2.6012   -0.0000 C   0  0  0  0  0  0  0  0  0  0  0  0
   -4.1766   -2.0272   -0.0000 C   0  0  0  0  0  0  0  0  0  0  0  0
    5.3367    0.2931   -0.0000 C   0  0  0  0  0  0  0  0  0  0  0  0
    3.8468    2.2837   -0.0000 C   0  0  0  0  0  0  0  0  0  0  0  0
   -5.4833   -1.1479   -0.0000 C   0  0  0  0  0  0  0  0  0  0  0  0
   -6.6679    1.2456   -0.0000 C   0  0  0  0  0  0  0  0  0  0  0  0
   -5.1902    3.4683   -0.0000 C   0  0  0  0  0  0  0  0  0  0  0  0
    5.4344   -1.2456   -0.0000 C   0  0  0  0  0  0  0  0  0  0  0  0
    6.6068    1.1479   -0.0000 C   0  0  0  0  0  0  0  0  0  0  0  0
    5.3245    2.7355   -0.0000 C   0  0  0  0  0  0  0  0  0  0  0  0
   -6.5824    2.7966   -0.0000 C   0  0  0  0  0  0  0  0  0  0  0  0
    6.8022   -1.9051   -0.0000 C   0  0  0  0  0  0  0  0  0  0  0  0
    7.9746    0.4885   -0.0000 C   0  0  0  0  0  0  0  0  0  0  0  0
    5.4222    4.2987   -0.0000 C   0  0  0  0  0  0  0  0  0  0  0  0
    6.5946    1.9051   -0.0000 C   0  0  0  0  0  0  0  0  0  0  0  0
    8.0601   -1.0258   -0.0000 C   0  0  0  0  0  0  0  0  0  0  0  0
    6.7900    4.9826   -0.0000 C   0  0  0  0  0  0  0  0  0  0  0  0
    7.9624    2.5890   -0.0000 C   0  0  0  0  0  0  0  0  0  0  0  0
    9.4278   -1.6853   -0.0000 N   0  0  0  0  0  0  0  0  0  0  0  0
    8.0478    4.1277   -0.0000 C   0  0  0  0  0  0  0  0  0  0  0  0
   10.6857   -0.8060   -0.0000 C   0  0  0  0  0  0  0  0  0  0  0  0
    9.1469    4.6773   -0.0000 O   0  0  0  0  0  0  0  0  0  0  0  0
   10.5880    0.4396   -0.0000 O   0  0  0  0  0  0  0  0  0  0  0  0
   12.0534   -1.4655   -0.0000 C   0  0  0  0  0  0  0  0  0  0  0  0
   13.3113   -0.5862   -0.0000 C   0  0  0  0  0  0  0  0  0  0  0  0
   14.6791   -1.2456   -0.0000 C   0  0  0  0  0  0  0  0  0  0  0  0
   15.9369   -0.3664   -0.0000 C   0  0  0  0  0  0  0  0  0  0  0  0
   17.3047   -1.0258   -0.0000 C   0  0  0  0  0  0  0  0  0  0  0  0
   18.5625   -0.1465   -0.0000 C   0  0  0  0  0  0  0  0  0  0  0  0
   19.9303   -0.8060   -0.0000 C   0  0  0  0  0  0  0  0  0  0  0  0
   20.9317   -0.0977   -0.0000 O   0  0  0  0  0  0  0  0  0  0  0  0
   20.0036   -2.0272   -0.0000 O   0  0  0  0  0  0  0  0  0  0  0  0
  1  2  2  0  0  0  0
  1  3  2  0  0  0  0
  1  4  1  0  0  0  0
  1  5  1  0  0  0  0
  4  6  1  0  0  0  0
  5  7  1  0  0  0  0
  5  8  1  0  0  0  0
  6  9  1  0  0  0  0
  6 10  2  0  0  0  0
  7 11  1  0  0  0  0
  7 12  1  0  0  0  0
  8 13  1  0  0  0  0
  9 14  1  0  0  0  0
  9 15  2  0  0  0  0
 10 16  1  0  0  0  0
 12 17  1  0  0  0  0
 12 18  2  0  0  0  0
 14 19  1  0  0  0  0
 14 20  2  0  0  0  0
 15 21  1  0  0  0  0
 17 22  2  0  0  0  0
 17 23  1  0  0  0  0
 18 24  1  0  0  0  0
 20 25  1  0  0  0  0
 22 26  1  0  0  0  0
 23 27  2  0  0  0  0
 24 28  2  0  0  0  0
 24 29  1  0  0  0  0
 26 30  2  0  0  0  0
 28 31  1  0  0  0  0
 29 32  2  0  0  0  0
 30 33  1  0  0  0  0
 31 34  2  0  0  0  0
 33 35  1  0  0  0  0
 34 36  1  0  0  0  0
 35 37  2  0  0  0  0
 35 38  1  0  0  0  0
 38 39  1  0  0  0  0
 39 40  1  0  0  0  0
 40 41  1  0  0  0  0
 41 42  1  0  0  0  0
 42 43  1  0  0  0  0
 43 44  1  0  0  0  0
 44 45  2  0  0  0  0
 44 46  1  0  0  0  0
 11 13  1  0  0  0  0
 13 18  1  0  0  0  0
 16 19  2  0  0  0  0
 21 25  2  0  0  0  0
 27 30  1  0  0  0  0
 32 34  1  0  0  0  0
M  END
>  <MolRegNo>
1950516

>  <m>
=

>  <Value>
121.57

>  <Unit>
nM

>  <Type>
Ki

>  <pValue>
6.92

>  <Ligand Efficiency>
0.21

>  <Binding Efficiency>
10.78

>  <Surface Efficiency>
4.97

>  <Assay Index>
949887

>  <Assay Category>


>  <Assay Organism>
Homo sapiens

>  <Target ID>
19

>  <Target Name>
Estrogen receptor alpha

>  <Target Organism>
Homo sapiens

>  <Target Description>
Target is a single protein chain

>  <Sequence Accession>
P03372

>  <Reference>
J Med Chem 58 (11), 4550-4572 (2015)

>  <Pubmed ID>
25993269

>  <DOI>
10.1021/acs.jmedchem.5b00099

$$$$
1950517
Actelion Java MolfileCreator 1.0

 46 51  0  0  0  0  0  0  0  0999 V2000
    0.0000   -0.0000   -0.0000 S   0  0  0  0  0  0  0  0  0  0  0  0
   -0.0856   -1.2229   -0.0000 O   0  0  0  0  0  0  0  0  0  0  0  0
   -1.1128   -0.5381   -0.0000 O   0  0  0  0  0  0  0  0  0  0  0  0
   -1.2962    0.8560   -0.0000 O   0  0  0  0  0  0  0  0  0  0  0  0
    1.3696    0.6970   -0.0000 C   0  0  0  0  0  0  0  0  0  0  0  0
   -2.6903    0.1834   -0.0000 C   0  0  0  0  0  0  0  0  0  0  0  0
    2.5558   -0.0122   -0.0000 C   0  0  0  0  0  0  0  0  0  0  0  0
    1.3574    2.2623   -0.0000 C   0  0  0  0  0  0  0  0  0  0  0  0
   -2.8004   -1.3574   -0.0000 C   0  0  0  0  0  0  0  0  0  0  0  0
   -3.9865    1.0394   -0.0000 C   0  0  0  0  0  0  0  0  0  0  0  0
    3.1794    1.4552   -0.0000 O   0  0  0  0  0  0  0  0  0  0  0  0
    3.8643    0.7215   -0.0000 C   0  0  0  0  0  0  0  0  0  0  0  0
    2.5436    3.0449   -0.0000 C   0  0  0  0  0  0  0  0  0  0  0  0
   -4.1822   -2.0422   -0.0000 C   0  0  0  0  0  0  0  0  0  0  0  0
   -5.3806    0.3424   -0.0000 C   0  0  0  0  0  0  0  0  0  0  0  0
    5.3439    0.2935   -0.0000 C   0  0  0  0  0  0  0  0  0  0  0  0
    3.8520    2.2868   -0.0000 C   0  0  0  0  0  0  0  0  0  0  0  0
   -5.4784   -1.1862   -0.0000 C   0  0  0  0  0  0  0  0  0  0  0  0
   -4.2800   -3.5708   -0.0000 C   0  0  0  0  0  0  0  0  0  0  0  0
    5.4417   -1.2473   -0.0000 C   0  0  0  0  0  0  0  0  0  0  0  0
    6.6157    1.1495   -0.0000 C   0  0  0  0  0  0  0  0  0  0  0  0
    5.3317    2.7392   -0.0000 C   0  0  0  0  0  0  0  0  0  0  0  0
   -6.8603   -1.8710   -0.0000 C   0  0  0  0  0  0  0  0  0  0  0  0
   -5.6619   -4.2556   -0.0000 C   0  0  0  0  0  0  0  0  0  0  0  0
    6.8114   -1.9077   -0.0000 C   0  0  0  0  0  0  0  0  0  0  0  0
    7.9853    0.4891   -0.0000 C   0  0  0  0  0  0  0  0  0  0  0  0
    5.4295    4.3045   -0.0000 C   0  0  0  0  0  0  0  0  0  0  0  0
    6.6035    1.9077   -0.0000 C   0  0  0  0  0  0  0  0  0  0  0  0
   -6.9581   -3.3996   -0.0000 C   0  0  0  0  0  0  0  0  0  0  0  0
    8.0709   -1.0272   -0.0000 C   0  0  0  0  0  0  0  0  0  0  0  0
    6.7991    4.9893   -0.0000 C   0  0  0  0  0  0  0  0  0  0  0  0
    7.9731    2.5925   -0.0000 C   0  0  0  0  0  0  0  0  0  0  0  0
    9.4405   -1.6876   -0.0000 N   0  0  0  0  0  0  0  0  0  0  0  0
    8.0587    4.1333   -0.0000 C   0  0  0  0  0  0  0  0  0  0  0  0
   10.7001   -0.8071   -0.0000 C   0  0  0  0  0  0  0  0  0  0  0  0
    9.1593    4.6836   -0.0000 O   0  0  0  0  0  0  0  0  0  0  0  0
   10.6022    0.4402   -0.0000 O   0  0  0  0  0  0  0  0  0  0  0  0
   12.0697   -1.4674   -0.0000 C   0  0  0  0  0  0  0  0  0  0  0  0
   13.3292   -0.5870   -0.0000 C   0  0  0  0  0  0  0  0  0  0  0  0
   14.6988   -1.2473   -0.0000 C   0  0  0  0  0  0  0  0  0  0  0  0
   15.9584   -0.3669   -0.0000 C   0  0  0  0  0  0  0  0  0  0  0  0
   17.3280   -1.0272   -0.0000 C   0  0  0  0  0  0  0  0  0  0  0  0
   18.5875   -0.1467   -0.0000 C   0  0  0  0  0  0  0  0  0  0  0  0
   19.9572   -0.8071   -0.0000 C   0  0  0  0  0  0  0  0  0  0  0  0
   20.9599   -0.0978   -0.0000 O   0  0  0  0  0  0  0  0  0  0  0  0
   20.0305   -2.0300   -0.0000 O   0  0  0  0  0  0  0  0  0  0  0  0
  1  2  2  0  0  0  0
  1  3  2  0  0  0  0
  1  4  1  0  0  0  0
  1  5  1  0  0  0  0
  4  6  1  0  0  0  0
  5  7  1  0  0  0  0
  5  8  1  0  0  0  0
  6  9  2  0  0  0  0
  6 10  1  0  0  0  0
  7 11  1  0  0  0  0
  7 12  1  0  0  0  0
  8 13  1  0  0  0  0
  9 14  1  0  0  0  0
 10 15  2  0  0  0  0
 12 16  1  0  0  0  0
 12 17  2  0  0  0  0
 14 18  1  0  0  0  0
 14 19  2  0  0  0  0
 16 20  2  0  0  0  0
 16 21  1  0  0  0  0
 17 22  1  0  0  0  0
 18 23  2  0  0  0  0
 19 24  1  0  0  0  0
 20 25  1  0  0  0  0
 21 26  2  0  0  0  0
 22 27  2  0  0  0  0
 22 28  1  0  0  0  0
 23 29  1  0  0  0  0
 25 30  2  0  0  0  0
 27 31  1  0  0  0  0
 28 32  2  0  0  0  0
 30 33  1  0  0  0  0
 31 34  2  0  0  0  0
 33 35  1  0  0  0  0
 34 36  1  0  0  0  0
 35 37  2  0  0  0  0
 35 38  1  0  0  0  0
 38 39  1  0  0  0  0
 39 40  1  0  0  0  0
 40 41  1  0  0  0  0
 41 42  1  0  0  0  0
 42 43  1  0  0  0  0
 43 44  1  0  0  0  0
 44 45  2  0  0  0  0
 44 46  1  0  0  0  0
 11 13  1  0  0  0  0
 13 17  1  0  0  0  0
 15 18  1  0  0  0  0
 24 29  2  0  0  0  0
 26 30  1  0  0  0  0
 32 34  1  0  0  0  0
M  END
>  <MolRegNo>
1950517

>  <m>
=

>  <Value>
169.4

>  <Unit>
nM

>  <Type>
Ki

>  <pValue>
6.77

>  <Ligand Efficiency>
0.2

>  <Binding Efficiency>
10.55

>  <Surface Efficiency>
4.86

>  <Assay Index>
949887

>  <Assay Category>


>  <Assay Organism>
Homo sapiens

>  <Target ID>
19

>  <Target Name>
Estrogen receptor alpha

>  <Target Organism>
Homo sapiens

>  <Target Description>
Target is a single protein chain

>  <Sequence Accession>
P03372

>  <Reference>
J Med Chem 58 (11), 4550-4572 (2015)

>  <Pubmed ID>
25993269

>  <DOI>
10.1021/acs.jmedchem.5b00099

$$$$
1950847
Actelion Java MolfileCreator 1.0

 44 48  0  0  0  0  0  0  0  0999 V2000
    0.0000   -0.0000   -0.0000 S   0  0  0  0  0  0  0  0  0  0  0  0
   -0.0861   -1.2306   -0.0000 O   0  0  0  0  0  0  0  0  0  0  0  0
   -1.1199   -0.5415   -0.0000 O   0  0  0  0  0  0  0  0  0  0  0  0
   -1.3045    0.8614   -0.0000 O   0  0  0  0  0  0  0  0  0  0  0  0
    1.3783    0.7015   -0.0000 C   0  0  0  0  0  0  0  0  0  0  0  0
   -2.7074    0.1846   -0.0000 C   0  0  0  0  0  0  0  0  0  0  0  0
    2.5720   -0.0123   -0.0000 C   0  0  0  0  0  0  0  0  0  0  0  0
    1.3660    2.2767   -0.0000 C   0  0  0  0  0  0  0  0  0  0  0  0
   -2.8058   -1.3537   -0.0000 C   0  0  0  0  0  0  0  0  0  0  0  0
   -4.0119    1.0460   -0.0000 C   0  0  0  0  0  0  0  0  0  0  0  0
    3.1996    1.4645   -0.0000 O   0  0  0  0  0  0  0  0  0  0  0  0
    3.8888    0.7261   -0.0000 C   0  0  0  0  0  0  0  0  0  0  0  0
    2.5597    3.0643   -0.0000 C   0  0  0  0  0  0  0  0  0  0  0  0
   -4.2088   -2.0429   -0.0000 C   0  0  0  0  0  0  0  0  0  0  0  0
   -5.4148    0.3569   -0.0000 C   0  0  0  0  0  0  0  0  0  0  0  0
    5.3779    0.2954   -0.0000 C   0  0  0  0  0  0  0  0  0  0  0  0
    3.8765    2.3013   -0.0000 C   0  0  0  0  0  0  0  0  0  0  0  0
   -5.5132   -1.1814   -0.0000 C   0  0  0  0  0  0  0  0  0  0  0  0
   -4.2949   -3.2735   -0.0000 C   0  0  0  0  0  0  0  0  0  0  0  0
    5.4763   -1.2552   -0.0000 C   0  0  0  0  0  0  0  0  0  0  0  0
    6.6577    1.1568   -0.0000 C   0  0  0  0  0  0  0  0  0  0  0  0
    5.3656    2.7566   -0.0000 C   0  0  0  0  0  0  0  0  0  0  0  0
    6.8546   -1.9198   -0.0000 C   0  0  0  0  0  0  0  0  0  0  0  0
    8.0360    0.4923   -0.0000 C   0  0  0  0  0  0  0  0  0  0  0  0
    5.4640    4.3318   -0.0000 C   0  0  0  0  0  0  0  0  0  0  0  0
    6.6454    1.9198   -0.0000 C   0  0  0  0  0  0  0  0  0  0  0  0
    8.1222   -1.0337   -0.0000 C   0  0  0  0  0  0  0  0  0  0  0  0
    6.8423    5.0210   -0.0000 C   0  0  0  0  0  0  0  0  0  0  0  0
    8.0237    2.6089   -0.0000 C   0  0  0  0  0  0  0  0  0  0  0  0
    9.5005   -1.6983   -0.0000 N   0  0  0  0  0  0  0  0  0  0  0  0
    8.1099    4.1595   -0.0000 C   0  0  0  0  0  0  0  0  0  0  0  0
   10.7681   -0.8122   -0.0000 C   0  0  0  0  0  0  0  0  0  0  0  0
    9.2175    4.7133   -0.0000 O   0  0  0  0  0  0  0  0  0  0  0  0
   10.6696    0.4430   -0.0000 O   0  0  0  0  0  0  0  0  0  0  0  0
   12.1464   -1.4768   -0.0000 C   0  0  0  0  0  0  0  0  0  0  0  0
   13.4139   -0.5907   -0.0000 C   0  0  0  0  0  0  0  0  0  0  0  0
   14.7922   -1.2552   -0.0000 C   0  0  0  0  0  0  0  0  0  0  0  0
   16.0598   -0.3692   -0.0000 C   0  0  0  0  0  0  0  0  0  0  0  0
   17.4381   -1.0337   -0.0000 C   0  0  0  0  0  0  0  0  0  0  0  0
   18.7056   -0.1477   -0.0000 C   0  0  0  0  0  0  0  0  0  0  0  0
   20.0840   -0.8122   -0.0000 C   0  0  0  0  0  0  0  0  0  0  0  0
   20.1578   -2.0429   -0.0000 O   0  0  0  0  0  0  0  0  0  0  0  0
   21.3515    0.0738   -0.0000 N   0  0  0  0  0  0  0  0  0  0  0  0
   22.4591   -0.4553   -0.0000 O   0  0  0  0  0  0  0  0  0  0  0  0
  1  2  2  0  0  0  0
  1  3  2  0  0  0  0
  1  4  1  0  0  0  0
  1  5  1  0  0  0  0
  4  6  1  0  0  0  0
  5  7  1  0  0  0  0
  5  8  1  0  0  0  0
  6  9  2  0  0  0  0
  6 10  1  0  0  0  0
  7 11  1  0  0  0  0
  7 12  1  0  0  0  0
  8 13  1  0  0  0  0
  9 14  1  0  0  0  0
 10 15  2  0  0  0  0
 12 16  1  0  0  0  0
 12 17  2  0  0  0  0
 14 18  2  0  0  0  0
 14 19  1  0  0  0  0
 16 20  2  0  0  0  0
 16 21  1  0  0  0  0
 17 22  1  0  0  0  0
 20 23  1  0  0  0  0
 21 24  2  0  0  0  0
 22 25  2  0  0  0  0
 22 26  1  0  0  0  0
 23 27  2  0  0  0  0
 25 28  1  0  0  0  0
 26 29  2  0  0  0  0
 27 30  1  0  0  0  0
 28 31  2  0  0  0  0
 30 32  1  0  0  0  0
 31 33  1  0  0  0  0
 32 34  2  0  0  0  0
 32 35  1  0  0  0  0
 35 36  1  0  0  0  0
 36 37  1  0  0  0  0
 37 38  1  0  0  0  0
 38 39  1  0  0  0  0
 39 40  1  0  0  0  0
 40 41  1  0  0  0  0
 41 42  2  0  0  0  0
 41 43  1  0  0  0  0
 43 44  1  0  0  0  0
 11 13  1  0  0  0  0
 13 17  1  0  0  0  0
 15 18  1  0  0  0  0
 24 27  1  0  0  0  0
 29 31  1  0  0  0  0
M  END
>  <MolRegNo>
1950847

>  <m>
=

>  <Value>
4428.6

>  <Unit>
nM

>  <Type>
Ki

>  <pValue>
5.35

>  <Ligand Efficiency>
0.17

>  <Binding Efficiency>
8.63

>  <Surface Efficiency>
3.54

>  <Assay Index>
949887

>  <Assay Category>


>  <Assay Organism>
Homo sapiens

>  <Target ID>
19

>  <Target Name>
Estrogen receptor alpha

>  <Target Organism>
Homo sapiens

>  <Target Description>
Target is a single protein chain

>  <Sequence Accession>
P03372

>  <Reference>
J Med Chem 58 (11), 4550-4572 (2015)

>  <Pubmed ID>
25993269

>  <DOI>
10.1021/acs.jmedchem.5b00099

$$$$
1950853
Actelion Java MolfileCreator 1.0

 47 52  0  0  0  0  0  0  0  0999 V2000
    0.0000   -0.0000   -0.0000 S   0  0  0  0  0  0  0  0  0  0  0  0
   -0.0856   -1.2224   -0.0000 O   0  0  0  0  0  0  0  0  0  0  0  0
   -1.1124   -0.5379   -0.0000 O   0  0  0  0  0  0  0  0  0  0  0  0
   -1.2958    0.8557   -0.0000 O   0  0  0  0  0  0  0  0  0  0  0  0
    1.3691    0.6968   -0.0000 C   0  0  0  0  0  0  0  0  0  0  0  0
   -2.6893    0.1834   -0.0000 C   0  0  0  0  0  0  0  0  0  0  0  0
    2.5549   -0.0122   -0.0000 C   0  0  0  0  0  0  0  0  0  0  0  0
    1.3569    2.2615   -0.0000 C   0  0  0  0  0  0  0  0  0  0  0  0
   -2.7993   -1.3569   -0.0000 C   0  0  0  0  0  0  0  0  0  0  0  0
   -3.9851    1.0391   -0.0000 C   0  0  0  0  0  0  0  0  0  0  0  0
    3.1783    1.4547   -0.0000 O   0  0  0  0  0  0  0  0  0  0  0  0
    3.8629    0.7212   -0.0000 C   0  0  0  0  0  0  0  0  0  0  0  0
    2.5426    3.0438   -0.0000 C   0  0  0  0  0  0  0  0  0  0  0  0
   -4.1807   -2.0414   -0.0000 C   0  0  0  0  0  0  0  0  0  0  0  0
   -5.3787    0.3423   -0.0000 C   0  0  0  0  0  0  0  0  0  0  0  0
    5.3420    0.2934   -0.0000 C   0  0  0  0  0  0  0  0  0  0  0  0
    3.8506    2.2859   -0.0000 C   0  0  0  0  0  0  0  0  0  0  0  0
   -5.4764   -1.1857   -0.0000 C   0  0  0  0  0  0  0  0  0  0  0  0
   -4.2785   -3.5695   -0.0000 C   0  0  0  0  0  0  0  0  0  0  0  0
    5.4398   -1.2469   -0.0000 C   0  0  0  0  0  0  0  0  0  0  0  0
    6.6133    1.1491   -0.0000 C   0  0  0  0  0  0  0  0  0  0  0  0
    5.3298    2.7382   -0.0000 C   0  0  0  0  0  0  0  0  0  0  0  0
   -6.8578   -1.8703   -0.0000 C   0  0  0  0  0  0  0  0  0  0  0  0
   -5.6598   -4.2540   -0.0000 C   0  0  0  0  0  0  0  0  0  0  0  0
    6.8089   -1.9070   -0.0000 C   0  0  0  0  0  0  0  0  0  0  0  0
    7.9824    0.4890   -0.0000 C   0  0  0  0  0  0  0  0  0  0  0  0
    5.4276    4.3029   -0.0000 C   0  0  0  0  0  0  0  0  0  0  0  0
    6.6011    1.9070   -0.0000 C   0  0  0  0  0  0  0  0  0  0  0  0
   -6.9556   -3.3983   -0.0000 C   0  0  0  0  0  0  0  0  0  0  0  0
    8.0680   -1.0268   -0.0000 C   0  0  0  0  0  0  0  0  0  0  0  0
    6.7967    4.9875   -0.0000 C   0  0  0  0  0  0  0  0  0  0  0  0
    7.9702    2.5915   -0.0000 C   0  0  0  0  0  0  0  0  0  0  0  0
    9.4371   -1.6869   -0.0000 N   0  0  0  0  0  0  0  0  0  0  0  0
    8.0558    4.1318   -0.0000 C   0  0  0  0  0  0  0  0  0  0  0  0
   10.6962   -0.8068   -0.0000 C   0  0  0  0  0  0  0  0  0  0  0  0
    9.1559    4.6819   -0.0000 O   0  0  0  0  0  0  0  0  0  0  0  0
   10.5984    0.4401   -0.0000 O   0  0  0  0  0  0  0  0  0  0  0  0
   12.0653   -1.4669   -0.0000 C   0  0  0  0  0  0  0  0  0  0  0  0
   13.3244   -0.5868   -0.0000 C   0  0  0  0  0  0  0  0  0  0  0  0
   14.6935   -1.2469   -0.0000 C   0  0  0  0  0  0  0  0  0  0  0  0
   15.9526   -0.3667   -0.0000 C   0  0  0  0  0  0  0  0  0  0  0  0
   17.3217   -1.0268   -0.0000 C   0  0  0  0  0  0  0  0  0  0  0  0
   18.5808   -0.1467   -0.0000 C   0  0  0  0  0  0  0  0  0  0  0  0
   19.9499   -0.8068   -0.0000 C   0  0  0  0  0  0  0  0  0  0  0  0
   20.0233   -2.0292   -0.0000 O   0  0  0  0  0  0  0  0  0  0  0  0
   21.2090    0.0733   -0.0000 N   0  0  0  0  0  0  0  0  0  0  0  0
   22.3092   -0.4523   -0.0000 O   0  0  0  0  0  0  0  0  0  0  0  0
  1  2  2  0  0  0  0
  1  3  2  0  0  0  0
  1  4  1  0  0  0  0
  1  5  1  0  0  0  0
  4  6  1  0  0  0  0
  5  7  1  0  0  0  0
  5  8  1  0  0  0  0
  6  9  2  0  0  0  0
  6 10  1  0  0  0  0
  7 11  1  0  0  0  0
  7 12  1  0  0  0  0
  8 13  1  0  0  0  0
  9 14  1  0  0  0  0
 10 15  2  0  0  0  0
 12 16  1  0  0  0  0
 12 17  2  0  0  0  0
 14 18  1  0  0  0  0
 14 19  2  0  0  0  0
 16 20  2  0  0  0  0
 16 21  1  0  0  0  0
 17 22  1  0  0  0  0
 18 23  2  0  0  0  0
 19 24  1  0  0  0  0
 20 25  1  0  0  0  0
 21 26  2  0  0  0  0
 22 27  2  0  0  0  0
 22 28  1  0  0  0  0
 23 29  1  0  0  0  0
 25 30  2  0  0  0  0
 27 31  1  0  0  0  0
 28 32  2  0  0  0  0
 30 33  1  0  0  0  0
 31 34  2  0  0  0  0
 33 35  1  0  0  0  0
 34 36  1  0  0  0  0
 35 37  2  0  0  0  0
 35 38  1  0  0  0  0
 38 39  1  0  0  0  0
 39 40  1  0  0  0  0
 40 41  1  0  0  0  0
 41 42  1  0  0  0  0
 42 43  1  0  0  0  0
 43 44  1  0  0  0  0
 44 45  2  0  0  0  0
 44 46  1  0  0  0  0
 46 47  1  0  0  0  0
 11 13  1  0  0  0  0
 13 17  1  0  0  0  0
 15 18  1  0  0  0  0
 24 29  2  0  0  0  0
 26 30  1  0  0  0  0
 32 34  1  0  0  0  0
M  END
>  <MolRegNo>
1950853

>  <m>
=

>  <Value>
306.93

>  <Unit>
nM

>  <Type>
Ki

>  <pValue>
6.51

>  <Ligand Efficiency>
0.19

>  <Binding Efficiency>
9.92

>  <Surface Efficiency>
4.31

>  <Assay Index>
949887

>  <Assay Category>


>  <Assay Organism>
Homo sapiens

>  <Target ID>
19

>  <Target Name>
Estrogen receptor alpha

>  <Target Organism>
Homo sapiens

>  <Target Description>
Target is a single protein chain

>  <Sequence Accession>
P03372

>  <Reference>
J Med Chem 58 (11), 4550-4572 (2015)

>  <Pubmed ID>
25993269

>  <DOI>
10.1021/acs.jmedchem.5b00099

$$$$
1978015
Actelion Java MolfileCreator 1.0

 23 25  0  0  0  0  0  0  0  0999 V2000
    0.0000   -0.0000   -0.0000 F   0  0  0  0  0  0  0  0  0  0  0  0
   -0.0121    1.2447   -0.0000 C   0  0  0  0  0  0  0  0  0  0  0  0
   -1.3535    2.0181   -0.0000 C   0  0  0  0  0  0  0  0  0  0  0  0
    1.3051    2.0302   -0.0000 C   0  0  0  0  0  0  0  0  0  0  0  0
   -1.3656    3.5650   -0.0000 C   0  0  0  0  0  0  0  0  0  0  0  0
    1.2931    3.5771   -0.0000 C   0  0  0  0  0  0  0  0  0  0  0  0
   -0.0483    4.3505   -0.0000 C   0  0  0  0  0  0  0  0  0  0  0  0
   -0.0604    5.8973   -0.0000 N   0  0  0  0  0  0  0  0  0  0  0  0
   -1.4018    6.6707   -0.0000 C   0  0  0  0  0  0  0  0  0  0  0  0
    1.2568    6.6828   -0.0000 C   0  0  0  0  0  0  0  0  0  0  0  0
   -2.7432    5.9215   -0.0000 C   0  0  0  0  0  0  0  0  0  0  0  0
   -1.4139    8.2176   -0.0000 C   0  0  0  0  0  0  0  0  0  0  0  0
    2.5740    5.9336   -0.0000 C   0  0  0  0  0  0  0  0  0  0  0  0
   -4.0846    6.6949   -0.0000 C   0  0  0  0  0  0  0  0  0  0  0  0
   -2.7553    8.9910   -0.0000 C   0  0  0  0  0  0  0  0  0  0  0  0
    3.8913    6.7070   -0.0000 C   0  0  0  0  0  0  0  0  0  0  0  0
    2.5619    4.4109   -0.0000 C   0  0  0  0  0  0  0  0  0  0  0  0
   -4.0967    8.2417   -0.0000 C   0  0  0  0  0  0  0  0  0  0  0  0
    5.2085    5.9577   -0.0000 C   0  0  0  0  0  0  0  0  0  0  0  0
    3.8792    3.6617   -0.0000 C   0  0  0  0  0  0  0  0  0  0  0  0
   -5.1722    8.8701   -0.0000 O   0  0  0  0  0  0  0  0  0  0  0  0
    5.1964    4.4351   -0.0000 C   0  0  0  0  0  0  0  0  0  0  0  0
    6.2478    3.8308   -0.0000 O   0  0  0  0  0  0  0  0  0  0  0  0
  1  2  1  0  0  0  0
  2  3  2  0  0  0  0
  2  4  1  0  0  0  0
  3  5  1  0  0  0  0
  4  6  2  0  0  0  0
  5  7  2  0  0  0  0
  7  8  1  0  0  0  0
  8  9  1  0  0  0  0
  8 10  1  0  0  0  0
  9 11  2  0  0  0  0
  9 12  1  0  0  0  0
 10 13  1  0  0  0  0
 11 14  1  0  0  0  0
 12 15  2  0  0  0  0
 13 16  2  0  0  0  0
 13 17  1  0  0  0  0
 14 18  2  0  0  0  0
 16 19  1  0  0  0  0
 17 20  2  0  0  0  0
 18 21  1  0  0  0  0
 19 22  2  0  0  0  0
 22 23  1  0  0  0  0
  6  7  1  0  0  0  0
 15 18  1  0  0  0  0
 20 22  1  0  0  0  0
M  END
>  <MolRegNo>
1978015

>  <m>
=

>  <Value>
13

>  <Unit>
nM

>  <Type>
Ki

>  <pValue>
7.89

>  <Ligand Efficiency>
0.47

>  <Binding Efficiency>
25.49

>  <Surface Efficiency>
18.05

>  <Assay Index>
973133

>  <Assay Category>


>  <Assay Organism>
Homo sapiens

>  <Target ID>
19

>  <Target Name>
Estrogen receptor alpha

>  <Target Organism>
Homo sapiens

>  <Target Description>
Target is a single protein chain

>  <Sequence Accession>
P03372

>  <Reference>


>  <Pubmed ID>


>  <DOI>


$$$$
1978011
Actelion Java MolfileCreator 1.0

 24 26  0  0  0  0  0  0  0  0999 V2000
    0.0000   -0.0000   -0.0000 O   0  0  0  0  0  0  0  0  0  0  0  0
    1.0611    0.6342   -0.0000 C   0  0  0  0  0  0  0  0  0  0  0  0
    1.0489    2.1953   -0.0000 C   0  0  0  0  0  0  0  0  0  0  0  0
    2.3905   -0.1220   -0.0000 C   0  0  0  0  0  0  0  0  0  0  0  0
    2.3783    2.9759   -0.0000 C   0  0  0  0  0  0  0  0  0  0  0  0
    3.7199    0.6586   -0.0000 C   0  0  0  0  0  0  0  0  0  0  0  0
    3.7077    2.2197   -0.0000 C   0  0  0  0  0  0  0  0  0  0  0  0
    5.0371    3.0003   -0.0000 N   0  0  0  0  0  0  0  0  0  0  0  0
    5.0249    4.5614   -0.0000 C   0  0  0  0  0  0  0  0  0  0  0  0
    6.3665    2.2319   -0.0000 C   0  0  0  0  0  0  0  0  0  0  0  0
    3.6711    5.3542   -0.0000 C   0  0  0  0  0  0  0  0  0  0  0  0
    6.3543    5.3420   -0.0000 C   0  0  0  0  0  0  0  0  0  0  0  0
    7.6959    3.0125   -0.0000 C   0  0  0  0  0  0  0  0  0  0  0  0
    3.6589    6.9153   -0.0000 C   0  0  0  0  0  0  0  0  0  0  0  0
    6.3421    6.9031   -0.0000 C   0  0  0  0  0  0  0  0  0  0  0  0
    9.0252    2.2563   -0.0000 C   0  0  0  0  0  0  0  0  0  0  0  0
    7.6837    4.5736   -0.0000 C   0  0  0  0  0  0  0  0  0  0  0  0
    4.9883    7.6959   -0.0000 C   0  0  0  0  0  0  0  0  0  0  0  0
   10.3546    3.0369   -0.0000 C   0  0  0  0  0  0  0  0  0  0  0  0
    9.0131    1.0245   -0.0000 C   0  0  0  0  0  0  0  0  0  0  0  0
    9.0131    5.3542   -0.0000 C   0  0  0  0  0  0  0  0  0  0  0  0
    4.9761    8.9521   -0.0000 O   0  0  0  0  0  0  0  0  0  0  0  0
   10.3424    4.5980   -0.0000 C   0  0  0  0  0  0  0  0  0  0  0  0
   11.4157    2.4271   -0.0000 C   0  0  0  0  0  0  0  0  0  0  0  0
  1  2  1  0  0  0  0
  2  3  2  0  0  0  0
  2  4  1  0  0  0  0
  3  5  1  0  0  0  0
  4  6  2  0  0  0  0
  5  7  2  0  0  0  0
  7  8  1  0  0  0  0
  8  9  1  0  0  0  0
  8 10  1  0  0  0  0
  9 11  2  0  0  0  0
  9 12  1  0  0  0  0
 10 13  1  0  0  0  0
 11 14  1  0  0  0  0
 12 15  2  0  0  0  0
 13 16  2  0  0  0  0
 13 17  1  0  0  0  0
 14 18  2  0  0  0  0
 16 19  1  0  0  0  0
 16 20  1  0  0  0  0
 17 21  2  0  0  0  0
 18 22  1  0  0  0  0
 19 23  2  0  0  0  0
 19 24  1  0  0  0  0
  6  7  1  0  0  0  0
 15 18  1  0  0  0  0
 21 23  1  0  0  0  0
M  END
>  <MolRegNo>
1978011

>  <m>
=

>  <Value>
3.81

>  <Unit>
nM

>  <Type>
Ki

>  <pValue>
8.42

>  <Ligand Efficiency>
0.48

>  <Binding Efficiency>
26.36

>  <Surface Efficiency>
19.27

>  <Assay Index>
973133

>  <Assay Category>


>  <Assay Organism>
Homo sapiens

>  <Target ID>
19

>  <Target Name>
Estrogen receptor alpha

>  <Target Organism>
Homo sapiens

>  <Target Description>
Target is a single protein chain

>  <Sequence Accession>
P03372

>  <Reference>


>  <Pubmed ID>


>  <DOI>


$$$$
1978010
Actelion Java MolfileCreator 1.0

 26 28  0  0  0  0  0  0  0  0999 V2000
    0.0000   -0.0000   -0.0000 O   0  0  0  0  0  0  0  0  0  0  0  0
   -0.0122   -1.2314   -0.0000 C   0  0  0  0  0  0  0  0  0  0  0  0
   -1.3656   -1.9996   -0.0000 N   0  0  0  0  0  0  0  0  0  0  0  0
    1.3168   -1.9874   -0.0000 C   0  0  0  0  0  0  0  0  0  0  0  0
   -2.7189   -1.2193   -0.0000 C   0  0  0  0  0  0  0  0  0  0  0  0
   -1.3778   -3.5358   -0.0000 C   0  0  0  0  0  0  0  0  0  0  0  0
    2.6458   -1.2071   -0.0000 C   0  0  0  0  0  0  0  0  0  0  0  0
    1.3046   -3.5236   -0.0000 C   0  0  0  0  0  0  0  0  0  0  0  0
   -4.0723   -1.9752   -0.0000 C   0  0  0  0  0  0  0  0  0  0  0  0
   -2.7311    0.3414   -0.0000 C   0  0  0  0  0  0  0  0  0  0  0  0
   -2.7311   -4.3040   -0.0000 C   0  0  0  0  0  0  0  0  0  0  0  0
   -0.0488   -4.2918   -0.0000 C   0  0  0  0  0  0  0  0  0  0  0  0
    3.9748   -1.9630   -0.0000 C   0  0  0  0  0  0  0  0  0  0  0  0
    2.6336   -4.2796   -0.0000 C   0  0  0  0  0  0  0  0  0  0  0  0
   -5.4257   -1.1949   -0.0000 C   0  0  0  0  0  0  0  0  0  0  0  0
   -4.0845    1.1217   -0.0000 C   0  0  0  0  0  0  0  0  0  0  0  0
   -2.7433   -5.8402   -0.0000 C   0  0  0  0  0  0  0  0  0  0  0  0
   -0.0610   -5.8280   -0.0000 C   0  0  0  0  0  0  0  0  0  0  0  0
    3.9626   -3.4993   -0.0000 C   0  0  0  0  0  0  0  0  0  0  0  0
   -5.4379    0.3658   -0.0000 C   0  0  0  0  0  0  0  0  0  0  0  0
   -1.4143   -6.5962   -0.0000 C   0  0  0  0  0  0  0  0  0  0  0  0
    5.2916   -4.2674   -0.0000 C   0  0  0  0  0  0  0  0  0  0  0  0
   -6.5230    0.9998   -0.0000 O   0  0  0  0  0  0  0  0  0  0  0  0
   -1.4265   -7.8276   -0.0000 O   0  0  0  0  0  0  0  0  0  0  0  0
    5.2794   -5.8037   -0.0000 C   0  0  0  0  0  0  0  0  0  0  0  0
    6.3401   -6.4133   -0.0000 C   0  0  0  0  0  0  0  0  0  0  0  0
  1  2  2  0  0  0  0
  2  3  1  0  0  0  0
  2  4  1  0  0  0  0
  3  5  1  0  0  0  0
  3  6  1  0  0  0  0
  4  7  2  0  0  0  0
  4  8  1  0  0  0  0
  5  9  2  0  0  0  0
  5 10  1  0  0  0  0
  6 11  2  0  0  0  0
  6 12  1  0  0  0  0
  7 13  1  0  0  0  0
  8 14  2  0  0  0  0
  9 15  1  0  0  0  0
 10 16  2  0  0  0  0
 11 17  1  0  0  0  0
 12 18  2  0  0  0  0
 13 19  2  0  0  0  0
 15 20  2  0  0  0  0
 17 21  2  0  0  0  0
 19 22  1  0  0  0  0
 20 23  1  0  0  0  0
 21 24  1  0  0  0  0
 22 25  1  0  0  0  0
 25 26  1  0  0  0  0
 14 19  1  0  0  0  0
 16 20  1  0  0  0  0
 18 21  1  0  0  0  0
M  END
>  <MolRegNo>
1978010

>  <m>
=

>  <Value>
3.75

>  <Unit>
nM

>  <Type>
Ki

>  <pValue>
8.43

>  <Ligand Efficiency>
0.44

>  <Binding Efficiency>
24.25

>  <Surface Efficiency>
13.87

>  <Assay Index>
973133

>  <Assay Category>


>  <Assay Organism>
Homo sapiens

>  <Target ID>
19

>  <Target Name>
Estrogen receptor alpha

>  <Target Organism>
Homo sapiens

>  <Target Description>
Target is a single protein chain

>  <Sequence Accession>
P03372

>  <Reference>


>  <Pubmed ID>


>  <DOI>


$$$$
1978014
Actelion Java MolfileCreator 1.0

 25 27  0  0  0  0  0  0  0  0999 V2000
    0.0000   -0.0000   -0.0000 F   0  0  0  0  0  0  0  0  0  0  0  0
   -0.0123   -1.2422   -0.0000 C   0  0  0  0  0  0  0  0  0  0  0  0
   -1.3775   -2.0047   -0.0000 C   0  0  0  0  0  0  0  0  0  0  0  0
    1.3283   -2.0047   -0.0000 C   0  0  0  0  0  0  0  0  0  0  0  0
   -2.4721   -1.3652   -0.0000 O   0  0  0  0  0  0  0  0  0  0  0  0
   -1.3898   -3.5544   -0.0000 C   0  0  0  0  0  0  0  0  0  0  0  0
    1.3160   -3.5544   -0.0000 C   0  0  0  0  0  0  0  0  0  0  0  0
   -0.0492   -4.3170   -0.0000 C   0  0  0  0  0  0  0  0  0  0  0  0
    2.6566   -4.3170   -0.0000 C   0  0  0  0  0  0  0  0  0  0  0  0
    2.6443   -5.5592   -0.0000 O   0  0  0  0  0  0  0  0  0  0  0  0
    3.9972   -3.5175   -0.0000 N   0  0  0  0  0  0  0  0  0  0  0  0
    5.3378   -4.2801   -0.0000 C   0  0  0  0  0  0  0  0  0  0  0  0
    3.9849   -1.9433   -0.0000 C   0  0  0  0  0  0  0  0  0  0  0  0
    6.6784   -3.4929   -0.0000 C   0  0  0  0  0  0  0  0  0  0  0  0
    5.3255   -5.8298   -0.0000 C   0  0  0  0  0  0  0  0  0  0  0  0
    2.6197   -1.1561   -0.0000 C   0  0  0  0  0  0  0  0  0  0  0  0
    5.3255   -1.1438   -0.0000 C   0  0  0  0  0  0  0  0  0  0  0  0
    8.0190   -4.2555   -0.0000 C   0  0  0  0  0  0  0  0  0  0  0  0
    6.6661   -6.5923   -0.0000 C   0  0  0  0  0  0  0  0  0  0  0  0
    2.6074    0.4182   -0.0000 C   0  0  0  0  0  0  0  0  0  0  0  0
    5.3132    0.4305   -0.0000 C   0  0  0  0  0  0  0  0  0  0  0  0
    8.0067   -5.8052   -0.0000 C   0  0  0  0  0  0  0  0  0  0  0  0
    3.9480    1.2176   -0.0000 C   0  0  0  0  0  0  0  0  0  0  0  0
    9.0767   -6.4201   -0.0000 O   0  0  0  0  0  0  0  0  0  0  0  0
    3.9357    2.4844   -0.0000 O   0  0  0  0  0  0  0  0  0  0  0  0
  1  2  1  0  0  0  0
  2  3  2  0  0  0  0
  2  4  1  0  0  0  0
  3  5  1  0  0  0  0
  3  6  1  0  0  0  0
  4  7  2  0  0  0  0
  6  8  2  0  0  0  0
  7  9  1  0  0  0  0
  9 10  2  0  0  0  0
  9 11  1  0  0  0  0
 11 12  1  0  0  0  0
 11 13  1  0  0  0  0
 12 14  2  0  0  0  0
 12 15  1  0  0  0  0
 13 16  2  0  0  0  0
 13 17  1  0  0  0  0
 14 18  1  0  0  0  0
 15 19  2  0  0  0  0
 16 20  1  0  0  0  0
 17 21  2  0  0  0  0
 18 22  2  0  0  0  0
 20 23  2  0  0  0  0
 22 24  1  0  0  0  0
 23 25  1  0  0  0  0
  7  8  1  0  0  0  0
 19 22  1  0  0  0  0
 21 23  1  0  0  0  0
M  END
>  <MolRegNo>
1978014

>  <m>
=

>  <Value>
6.06

>  <Unit>
nM

>  <Type>
Ki

>  <pValue>
8.22

>  <Ligand Efficiency>
0.45

>  <Binding Efficiency>
24.22

>  <Surface Efficiency>
10.15

>  <Assay Index>
973133

>  <Assay Category>


>  <Assay Organism>
Homo sapiens

>  <Target ID>
19

>  <Target Name>
Estrogen receptor alpha

>  <Target Organism>
Homo sapiens

>  <Target Description>
Target is a single protein chain

>  <Sequence Accession>
P03372

>  <Reference>


>  <Pubmed ID>


>  <DOI>


$$$$
1050355
Actelion Java MolfileCreator 1.0

 22 25  0  0  1  0  0  0  0  0999 V2000
    0.0000   -0.0000   -0.0000 O   0  0  0  0  0  0  0  0  0  0  0  0
    1.0709   -0.6155   -0.0000 C   0  0  0  0  0  0  0  0  0  0  0  0
    1.0586   -2.1665   -0.0000 C   0  0  0  0  0  0  0  0  0  0  0  0
    2.4127    0.1723   -0.0000 C   0  0  0  0  0  0  0  0  0  0  0  0
    2.4003   -2.9420   -0.0000 C   0  0  0  0  0  0  0  0  0  0  0  0
    3.7544   -0.6032   -0.0000 C   0  0  0  0  0  0  0  0  0  0  0  0
    3.7421   -2.1542   -0.0000 C   0  0  0  0  0  0  0  0  0  0  0  0
    2.3880   -4.4929   -0.0000 C   0  0  0  0  0  0  0  0  0  0  0  0
    5.0838   -2.9296   -0.0000 C   0  0  0  0  0  0  0  0  0  0  0  0
    3.7298   -5.2684   -0.0000 C   0  0  0  0  0  0  0  0  0  0  0  0
    5.0715   -4.4806   -0.0000 C   0  0  0  0  0  0  0  0  0  0  0  0
    6.4255   -2.1418   -0.0000 C   0  0  0  0  0  0  0  0  0  0  0  0
    6.4132   -5.2561   -0.0000 C   0  0  0  0  0  0  0  0  0  0  0  0
    7.7673   -2.9173   -0.0000 C   0  0  0  0  0  0  0  0  0  0  0  0
    7.7549   -4.4683   -0.0000 C   0  0  0  0  0  0  0  0  0  0  0  0
    6.7456   -6.7579   -0.0000 C   0  0  0  0  0  0  0  0  0  0  0  0
    8.9120   -5.4777   -0.0000 C   0  0  0  0  0  0  0  0  0  0  0  0
    8.8751   -3.9390   -0.0000 C   0  0  0  0  0  0  0  0  0  0  0  0
    8.2843   -6.8933   -0.0000 C   0  0  0  0  0  0  0  0  0  0  0  0
    9.2567   -4.2714   -0.0000 O   0  0  0  0  0  0  0  0  0  0  0  0
    9.9337   -6.6225   -0.0000 C   0  0  0  0  0  0  0  0  0  0  0  0
   10.7708   -7.5334   -0.0000 C   0  0  0  0  0  0  0  0  0  0  0  0
  1  2  1  0  0  0  0
  2  3  2  0  0  0  0
  2  4  1  0  0  0  0
  3  5  1  0  0  0  0
  4  6  2  0  0  0  0
  5  7  2  0  0  0  0
  5  8  1  0  0  0  0
  7  9  1  0  0  0  0
  8 10  1  0  0  0  0
  9 11  1  0  0  0  0
  9 12  1  1  0  0  0
 11 13  1  0  0  0  0
 12 14  1  0  0  0  0
 13 15  1  0  0  0  0
 13 16  1  1  0  0  0
 15 17  1  0  0  0  0
 15 18  1  0  0  0  0
 16 19  1  0  0  0  0
 17 20  1  1  0  0  0
 17 21  1  0  0  0  0
 21 22  3  0  0  0  0
  6  7  1  0  0  0  0
 11 10  1  6  0  0  0
 14 15  1  0  0  0  0
 17 19  1  0  0  0  0
M  END
>  <MolRegNo>
1050355

>  <m>
=

>  <Value>
0.23

>  <Unit>
nM

>  <Type>
Ki

>  <pValue>
9.64

>  <Ligand Efficiency>
0.6

>  <Binding Efficiency>
32.52

>  <Surface Efficiency>
23.82

>  <Assay Index>
973501

>  <Assay Category>


>  <Assay Organism>
Homo sapiens

>  <Target ID>
19

>  <Target Name>
Estrogen receptor alpha

>  <Target Organism>
Homo sapiens

>  <Target Description>
Target is a single protein chain

>  <Sequence Accession>
P03372

>  <Reference>


>  <Pubmed ID>


>  <DOI>


$$$$
1978013
Actelion Java MolfileCreator 1.0

 27 30  0  0  0  0  0  0  0  0999 V2000
    0.0000   -0.0000   -0.0000 O   0  0  0  0  0  0  0  0  0  0  0  0
   -1.0719   -0.6022   -0.0000 C   0  0  0  0  0  0  0  0  0  0  0  0
   -1.0839   -2.1197   -0.0000 N   0  0  0  0  0  0  0  0  0  0  0  0
   -2.4087    0.1807   -0.0000 C   0  0  0  0  0  0  0  0  0  0  0  0
    0.2288   -2.8784   -0.0000 C   0  0  0  0  0  0  0  0  0  0  0  0
   -2.4208   -2.8664   -0.0000 C   0  0  0  0  0  0  0  0  0  0  0  0
   -3.7455   -0.5660   -0.0000 C   0  0  0  0  0  0  0  0  0  0  0  0
   -2.4208    1.7222   -0.0000 C   0  0  0  0  0  0  0  0  0  0  0  0
    0.2168   -4.3959   -0.0000 C   0  0  0  0  0  0  0  0  0  0  0  0
    1.5416   -2.1076   -0.0000 C   0  0  0  0  0  0  0  0  0  0  0  0
   -3.7576   -2.0835   -0.0000 C   0  0  0  0  0  0  0  0  0  0  0  0
   -2.4328   -4.3839   -0.0000 C   0  0  0  0  0  0  0  0  0  0  0  0
   -5.0824    0.2047   -0.0000 C   0  0  0  0  0  0  0  0  0  0  0  0
   -3.7576    2.4930   -0.0000 C   0  0  0  0  0  0  0  0  0  0  0  0
    1.5295   -5.1426   -0.0000 C   0  0  0  0  0  0  0  0  0  0  0  0
    2.8543   -2.8543   -0.0000 C   0  0  0  0  0  0  0  0  0  0  0  0
   -5.0944   -2.8302   -0.0000 C   0  0  0  0  0  0  0  0  0  0  0  0
   -3.7696   -5.1306   -0.0000 C   0  0  0  0  0  0  0  0  0  0  0  0
   -5.0944    1.7463   -0.0000 C   0  0  0  0  0  0  0  0  0  0  0  0
   -6.4192   -0.5420   -0.0000 C   0  0  0  0  0  0  0  0  0  0  0  0
    2.8423   -4.3718   -0.0000 C   0  0  0  0  0  0  0  0  0  0  0  0
   -5.1065   -4.3477   -0.0000 C   0  0  0  0  0  0  0  0  0  0  0  0
   -6.4313    2.5171   -0.0000 C   0  0  0  0  0  0  0  0  0  0  0  0
   -7.7560    0.2288   -0.0000 C   0  0  0  0  0  0  0  0  0  0  0  0
    3.8901   -4.9740   -0.0000 O   0  0  0  0  0  0  0  0  0  0  0  0
   -6.1783   -4.9499   -0.0000 O   0  0  0  0  0  0  0  0  0  0  0  0
   -7.7681    1.7704   -0.0000 C   0  0  0  0  0  0  0  0  0  0  0  0
  1  2  2  0  0  0  0
  2  3  1  0  0  0  0
  2  4  1  0  0  0  0
  3  5  1  0  0  0  0
  3  6  1  0  0  0  0
  4  7  2  0  0  0  0
  4  8  1  0  0  0  0
  5  9  2  0  0  0  0
  5 10  1  0  0  0  0
  6 11  2  0  0  0  0
  6 12  1  0  0  0  0
  7 13  1  0  0  0  0
  8 14  2  0  0  0  0
  9 15  1  0  0  0  0
 10 16  2  0  0  0  0
 11 17  1  0  0  0  0
 12 18  2  0  0  0  0
 13 19  1  0  0  0  0
 13 20  2  0  0  0  0
 15 21  2  0  0  0  0
 17 22  2  0  0  0  0
 19 23  2  0  0  0  0
 20 24  1  0  0  0  0
 21 25  1  0  0  0  0
 22 26  1  0  0  0  0
 23 27  1  0  0  0  0
 14 19  1  0  0  0  0
 16 21  1  0  0  0  0
 18 22  1  0  0  0  0
 24 27  2  0  0  0  0
M  END
>  <MolRegNo>
1978013

>  <m>
=

>  <Value>
9

>  <Unit>
nM

>  <Type>
Ki

>  <pValue>
8.05

>  <Ligand Efficiency>
0.41

>  <Binding Efficiency>
22.64

>  <Surface Efficiency>
13.24

>  <Assay Index>
973133

>  <Assay Category>


>  <Assay Organism>
Homo sapiens

>  <Target ID>
19

>  <Target Name>
Estrogen receptor alpha

>  <Target Organism>
Homo sapiens

>  <Target Description>
Target is a single protein chain

>  <Sequence Accession>
P03372

>  <Reference>


>  <Pubmed ID>


>  <DOI>


$$$$
1978016
Actelion Java MolfileCreator 1.0

 36 39  0  0  0  0  0  0  0  0999 V2000
    0.0000   -0.0000   -0.0000 F   0  0  0  0  0  0  0  0  0  0  0  0
    1.0640   -0.6115   -0.0000 C   0  0  0  0  0  0  0  0  0  0  0  0
    1.0517   -2.1524   -0.0000 C   0  0  0  0  0  0  0  0  0  0  0  0
    2.3970    0.1712   -0.0000 C   0  0  0  0  0  0  0  0  0  0  0  0
    2.3847   -2.9106   -0.0000 C   0  0  0  0  0  0  0  0  0  0  0  0
    3.7300   -0.5870   -0.0000 C   0  0  0  0  0  0  0  0  0  0  0  0
    3.7177   -2.1279   -0.0000 C   0  0  0  0  0  0  0  0  0  0  0  0
    2.3725   -4.4515   -0.0000 C   0  0  0  0  0  0  0  0  0  0  0  0
    5.0507   -2.8861   -0.0000 C   0  0  0  0  0  0  0  0  0  0  0  0
    1.2841   -5.0630   -0.0000 F   0  0  0  0  0  0  0  0  0  0  0  0
    3.4365   -5.0630   -0.0000 F   0  0  0  0  0  0  0  0  0  0  0  0
    2.3603   -5.6867   -0.0000 F   0  0  0  0  0  0  0  0  0  0  0  0
    5.0385   -4.1213   -0.0000 O   0  0  0  0  0  0  0  0  0  0  0  0
    6.3838   -2.0912   -0.0000 N   0  0  0  0  0  0  0  0  0  0  0  0
    6.3715   -0.5259   -0.0000 C   0  0  0  0  0  0  0  0  0  0  0  0
    7.7168   -2.8495   -0.0000 C   0  0  0  0  0  0  0  0  0  0  0  0
    5.0141    0.2568   -0.0000 C   0  0  0  0  0  0  0  0  0  0  0  0
    7.7045    0.2690   -0.0000 C   0  0  0  0  0  0  0  0  0  0  0  0
    9.0498   -2.0668   -0.0000 C   0  0  0  0  0  0  0  0  0  0  0  0
    7.7045   -4.3904   -0.0000 C   0  0  0  0  0  0  0  0  0  0  0  0
    5.0018    1.8222   -0.0000 C   0  0  0  0  0  0  0  0  0  0  0  0
    7.6923    1.8344   -0.0000 C   0  0  0  0  0  0  0  0  0  0  0  0
   10.3828   -2.8250   -0.0000 C   0  0  0  0  0  0  0  0  0  0  0  0
    9.0375   -5.1486   -0.0000 C   0  0  0  0  0  0  0  0  0  0  0  0
    6.3348    2.6171   -0.0000 C   0  0  0  0  0  0  0  0  0  0  0  0
   10.3705   -4.3659   -0.0000 C   0  0  0  0  0  0  0  0  0  0  0  0
    6.3226    4.1825   -0.0000 O   0  0  0  0  0  0  0  0  0  0  0  0
   11.4345   -4.9774   -0.0000 O   0  0  0  0  0  0  0  0  0  0  0  0
    7.6556    4.9651   -0.0000 C   0  0  0  0  0  0  0  0  0  0  0  0
    7.6434    6.5305   -0.0000 C   0  0  0  0  0  0  0  0  0  0  0  0
    8.9764    7.3132   -0.0000 N   0  0  0  0  0  0  0  0  0  0  0  0
    8.9642    8.8786   -0.0000 C   0  0  0  0  0  0  0  0  0  0  0  0
   10.3094    6.5427   -0.0000 C   0  0  0  0  0  0  0  0  0  0  0  0
   10.2972    9.6612   -0.0000 C   0  0  0  0  0  0  0  0  0  0  0  0
   11.6424    7.3254   -0.0000 C   0  0  0  0  0  0  0  0  0  0  0  0
   11.6302    8.8908   -0.0000 C   0  0  0  0  0  0  0  0  0  0  0  0
  1  2  1  0  0  0  0
  2  3  2  0  0  0  0
  2  4  1  0  0  0  0
  3  5  1  0  0  0  0
  4  6  2  0  0  0  0
  5  7  2  0  0  0  0
  5  8  1  0  0  0  0
  7  9  1  0  0  0  0
  8 10  1  0  0  0  0
  8 11  1  0  0  0  0
  8 12  1  0  0  0  0
  9 13  2  0  0  0  0
  9 14  1  0  0  0  0
 14 15  1  0  0  0  0
 14 16  1  0  0  0  0
 15 17  2  0  0  0  0
 15 18  1  0  0  0  0
 16 19  2  0  0  0  0
 16 20  1  0  0  0  0
 17 21  1  0  0  0  0
 18 22  2  0  0  0  0
 19 23  1  0  0  0  0
 20 24  2  0  0  0  0
 21 25  2  0  0  0  0
 23 26  2  0  0  0  0
 25 27  1  0  0  0  0
 26 28  1  0  0  0  0
 27 29  1  0  0  0  0
 29 30  1  0  0  0  0
 30 31  1  0  0  0  0
 31 32  1  0  0  0  0
 31 33  1  0  0  0  0
 32 34  1  0  0  0  0
 33 35  1  0  0  0  0
 34 36  1  0  0  0  0
  6  7  1  0  0  0  0
 22 25  1  0  0  0  0
 24 26  1  0  0  0  0
 35 36  1  0  0  0  0
M  END
>  <MolRegNo>
1978016

>  <m>
=

>  <Value>
14.79

>  <Unit>
nM

>  <Type>
Ki

>  <pValue>
7.83

>  <Ligand Efficiency>
0.3

>  <Binding Efficiency>
15.58

>  <Surface Efficiency>
14.77

>  <Assay Index>
973133

>  <Assay Category>


>  <Assay Organism>
Homo sapiens

>  <Target ID>
19

>  <Target Name>
Estrogen receptor alpha

>  <Target Organism>
Homo sapiens

>  <Target Description>
Target is a single protein chain

>  <Sequence Accession>
P03372

>  <Reference>


>  <Pubmed ID>


>  <DOI>


$$$$
1978017
Actelion Java MolfileCreator 1.0

 24 26  0  0  0  0  0  0  0  0999 V2000
    0.0000   -0.0000   -0.0000 F   0  0  0  0  0  0  0  0  0  0  0  0
   -0.0122   -1.2348   -0.0000 C   0  0  0  0  0  0  0  0  0  0  0  0
   -1.3693   -1.9928   -0.0000 C   0  0  0  0  0  0  0  0  0  0  0  0
    1.3204   -1.9928   -0.0000 C   0  0  0  0  0  0  0  0  0  0  0  0
   -2.4574   -1.3571   -0.0000 O   0  0  0  0  0  0  0  0  0  0  0  0
   -1.3815   -3.5333   -0.0000 C   0  0  0  0  0  0  0  0  0  0  0  0
    1.3082   -3.5333   -0.0000 C   0  0  0  0  0  0  0  0  0  0  0  0
   -0.0489   -4.2913   -0.0000 C   0  0  0  0  0  0  0  0  0  0  0  0
    2.6408   -4.2913   -0.0000 C   0  0  0  0  0  0  0  0  0  0  0  0
    2.6286   -5.5261   -0.0000 O   0  0  0  0  0  0  0  0  0  0  0  0
    3.9734   -3.4966   -0.0000 N   0  0  0  0  0  0  0  0  0  0  0  0
    5.3061   -4.2546   -0.0000 C   0  0  0  0  0  0  0  0  0  0  0  0
    3.9612   -1.9317   -0.0000 C   0  0  0  0  0  0  0  0  0  0  0  0
    6.6387   -3.4722   -0.0000 C   0  0  0  0  0  0  0  0  0  0  0  0
    5.2939   -5.7951   -0.0000 C   0  0  0  0  0  0  0  0  0  0  0  0
    2.6041   -1.1492   -0.0000 C   0  0  0  0  0  0  0  0  0  0  0  0
    5.2939   -1.1370   -0.0000 C   0  0  0  0  0  0  0  0  0  0  0  0
    7.9713   -4.2302   -0.0000 C   0  0  0  0  0  0  0  0  0  0  0  0
    6.6265   -6.5531   -0.0000 C   0  0  0  0  0  0  0  0  0  0  0  0
    2.5919    0.4157   -0.0000 C   0  0  0  0  0  0  0  0  0  0  0  0
    5.2816    0.4279   -0.0000 C   0  0  0  0  0  0  0  0  0  0  0  0
    7.9591   -5.7707   -0.0000 C   0  0  0  0  0  0  0  0  0  0  0  0
    3.9245    1.2104   -0.0000 C   0  0  0  0  0  0  0  0  0  0  0  0
    9.0228   -6.3820   -0.0000 O   0  0  0  0  0  0  0  0  0  0  0  0
  1  2  1  0  0  0  0
  2  3  2  0  0  0  0
  2  4  1  0  0  0  0
  3  5  1  0  0  0  0
  3  6  1  0  0  0  0
  4  7  2  0  0  0  0
  6  8  2  0  0  0  0
  7  9  1  0  0  0  0
  9 10  2  0  0  0  0
  9 11  1  0  0  0  0
 11 12  1  0  0  0  0
 11 13  1  0  0  0  0
 12 14  2  0  0  0  0
 12 15  1  0  0  0  0
 13 16  2  0  0  0  0
 13 17  1  0  0  0  0
 14 18  1  0  0  0  0
 15 19  2  0  0  0  0
 16 20  1  0  0  0  0
 17 21  2  0  0  0  0
 18 22  2  0  0  0  0
 20 23  2  0  0  0  0
 22 24  1  0  0  0  0
  7  8  1  0  0  0  0
 19 22  1  0  0  0  0
 21 23  1  0  0  0  0
M  END
>  <MolRegNo>
1978017

>  <m>
=

>  <Value>
15

>  <Unit>
nM

>  <Type>
Ki

>  <pValue>
7.82

>  <Ligand Efficiency>
0.45

>  <Binding Efficiency>
24.2

>  <Surface Efficiency>
12.87

>  <Assay Index>
973133

>  <Assay Category>


>  <Assay Organism>
Homo sapiens

>  <Target ID>
19

>  <Target Name>
Estrogen receptor alpha

>  <Target Organism>
Homo sapiens

>  <Target Description>
Target is a single protein chain

>  <Sequence Accession>
P03372

>  <Reference>


>  <Pubmed ID>


>  <DOI>


$$$$
692664
Actelion Java MolfileCreator 1.0

 22 25  0  0  0  0  0  0  0  0999 V2000
    0.0000   -0.0000   -0.0000 O   0  0  0  0  0  0  0  0  0  0  0  0
    1.2839    0.7575   -0.0000 C   0  0  0  0  0  0  0  0  0  0  0  0
    2.5678    0.0257   -0.0000 C   0  0  0  0  0  0  0  0  0  0  0  0
    1.2710    2.2725   -0.0000 C   0  0  0  0  0  0  0  0  0  0  0  0
    3.8516    0.7832   -0.0000 C   0  0  0  0  0  0  0  0  0  0  0  0
    2.5549    3.0299   -0.0000 C   0  0  0  0  0  0  0  0  0  0  0  0
    3.8388    2.2981   -0.0000 C   0  0  0  0  0  0  0  0  0  0  0  0
    5.1355    0.0514   -0.0000 C   0  0  0  0  0  0  0  0  0  0  0  0
    5.1227    3.0556   -0.0000 C   0  0  0  0  0  0  0  0  0  0  0  0
    6.4194    0.8088   -0.0000 C   0  0  0  0  0  0  0  0  0  0  0  0
    6.4065    2.3238   -0.0000 C   0  0  0  0  0  0  0  0  0  0  0  0
    5.1098    4.5706   -0.0000 C   0  0  0  0  0  0  0  0  0  0  0  0
    7.6904    3.0813   -0.0000 C   0  0  0  0  0  0  0  0  0  0  0  0
    6.3937    5.3281   -0.0000 C   0  0  0  0  0  0  0  0  0  0  0  0
    7.6776    4.5963   -0.0000 C   0  0  0  0  0  0  0  0  0  0  0  0
    9.1027    2.6319   -0.0000 C   0  0  0  0  0  0  0  0  0  0  0  0
    9.0898    5.0713   -0.0000 C   0  0  0  0  0  0  0  0  0  0  0  0
    7.7161    6.2396   -0.0000 C   0  0  0  0  0  0  0  0  0  0  0  0
    9.5520    1.2197   -0.0000 O   0  0  0  0  0  0  0  0  0  0  0  0
    9.9757    3.8516   -0.0000 C   0  0  0  0  0  0  0  0  0  0  0  0
    9.5392    6.5092   -0.0000 O   0  0  0  0  0  0  0  0  0  0  0  0
   11.4650    3.8645   -0.0000 O   0  0  0  0  0  0  0  0  0  0  0  0
  1  2  1  0  0  0  0
  2  3  2  0  0  0  0
  2  4  1  0  0  0  0
  3  5  1  0  0  0  0
  4  6  2  0  0  0  0
  5  7  2  0  0  0  0
  5  8  1  0  0  0  0
  7  9  1  0  0  0  0
  8 10  1  0  0  0  0
  9 11  1  0  0  0  0
  9 12  1  1  0  0  0
 13 11  1  1  0  0  0
 12 14  1  0  0  0  0
 13 15  1  0  0  0  0
 13 16  1  0  0  0  0
 15 17  1  0  0  0  0
 15 18  1  1  0  0  0
 16 19  1  6  0  0  0
 16 20  1  0  0  0  0
 17 21  1  1  0  0  0
 20 22  1  6  0  0  0
  6  7  1  0  0  0  0
 11 10  1  6  0  0  0
 14 15  1  0  0  0  0
 17 20  1  0  0  0  0
M  END
>  <MolRegNo>
692664

>  <m>
=

>  <Value>
4.9

>  <Unit>
nM

>  <Type>
Ki

>  <pValue>
8.31

>  <Ligand Efficiency>
0.52

>  <Binding Efficiency>
27.3

>  <Surface Efficiency>
10.27

>  <Assay Index>
973609

>  <Assay Category>


>  <Assay Organism>
Homo sapiens

>  <Target ID>
19

>  <Target Name>
Estrogen receptor alpha

>  <Target Organism>
Homo sapiens

>  <Target Description>
Target is a single protein chain

>  <Sequence Accession>
P03372

>  <Reference>


>  <Pubmed ID>


>  <DOI>


$$$$
1978018
Actelion Java MolfileCreator 1.0

 25 27  0  0  0  0  0  0  0  0999 V2000
    0.0000   -0.0000   -0.0000 F   0  0  0  0  0  0  0  0  0  0  0  0
   -1.0917   -0.6133   -0.0000 C   0  0  0  0  0  0  0  0  0  0  0  0
   -1.1039   -2.1588   -0.0000 C   0  0  0  0  0  0  0  0  0  0  0  0
   -2.4532    0.1717   -0.0000 C   0  0  0  0  0  0  0  0  0  0  0  0
   -2.4655   -2.9193   -0.0000 C   0  0  0  0  0  0  0  0  0  0  0  0
   -0.0368   -2.7721   -0.0000 C   0  0  0  0  0  0  0  0  0  0  0  0
   -3.8147   -0.5888   -0.0000 C   0  0  0  0  0  0  0  0  0  0  0  0
   -2.4777   -4.4648   -0.0000 C   0  0  0  0  0  0  0  0  0  0  0  0
   -3.8270   -2.1343   -0.0000 C   0  0  0  0  0  0  0  0  0  0  0  0
   -1.4106   -5.0781   -0.0000 O   0  0  0  0  0  0  0  0  0  0  0  0
   -3.8392   -5.2253   -0.0000 N   0  0  0  0  0  0  0  0  0  0  0  0
   -3.8515   -6.7708   -0.0000 C   0  0  0  0  0  0  0  0  0  0  0  0
   -5.2008   -4.4280   -0.0000 C   0  0  0  0  0  0  0  0  0  0  0  0
   -5.2130   -7.5313   -0.0000 C   0  0  0  0  0  0  0  0  0  0  0  0
   -2.5145   -7.5313   -0.0000 C   0  0  0  0  0  0  0  0  0  0  0  0
   -6.5623   -5.1885   -0.0000 C   0  0  0  0  0  0  0  0  0  0  0  0
   -5.2130   -2.8580   -0.0000 C   0  0  0  0  0  0  0  0  0  0  0  0
   -5.2253   -9.0768   -0.0000 C   0  0  0  0  0  0  0  0  0  0  0  0
   -2.5268   -9.0768   -0.0000 C   0  0  0  0  0  0  0  0  0  0  0  0
   -7.9238   -4.3912   -0.0000 C   0  0  0  0  0  0  0  0  0  0  0  0
   -6.5745   -2.0607   -0.0000 C   0  0  0  0  0  0  0  0  0  0  0  0
   -3.8883   -9.8373   -0.0000 C   0  0  0  0  0  0  0  0  0  0  0  0
   -7.9361   -2.8212   -0.0000 C   0  0  0  0  0  0  0  0  0  0  0  0
   -3.9006  -11.0761   -0.0000 O   0  0  0  0  0  0  0  0  0  0  0  0
   -9.0277   -2.1833   -0.0000 O   0  0  0  0  0  0  0  0  0  0  0  0
  1  2  1  0  0  0  0
  2  3  2  0  0  0  0
  2  4  1  0  0  0  0
  3  5  1  0  0  0  0
  3  6  1  0  0  0  0
  4  7  2  0  0  0  0
  5  8  1  0  0  0  0
  5  9  2  0  0  0  0
  8 10  2  0  0  0  0
  8 11  1  0  0  0  0
 11 12  1  0  0  0  0
 11 13  1  0  0  0  0
 12 14  2  0  0  0  0
 12 15  1  0  0  0  0
 13 16  2  0  0  0  0
 13 17  1  0  0  0  0
 14 18  1  0  0  0  0
 15 19  2  0  0  0  0
 16 20  1  0  0  0  0
 17 21  2  0  0  0  0
 18 22  2  0  0  0  0
 20 23  2  0  0  0  0
 22 24  1  0  0  0  0
 23 25  1  0  0  0  0
  7  9  1  0  0  0  0
 19 22  1  0  0  0  0
 21 23  1  0  0  0  0
M  END
>  <MolRegNo>
1978018

>  <m>
=

>  <Value>
15.12

>  <Unit>
nM

>  <Type>
Ki

>  <pValue>
7.82

>  <Ligand Efficiency>
0.43

>  <Binding Efficiency>
23.18

>  <Surface Efficiency>
12.87

>  <Assay Index>
973133

>  <Assay Category>


>  <Assay Organism>
Homo sapiens

>  <Target ID>
19

>  <Target Name>
Estrogen receptor alpha

>  <Target Organism>
Homo sapiens

>  <Target Description>
Target is a single protein chain

>  <Sequence Accession>
P03372

>  <Reference>


>  <Pubmed ID>


>  <DOI>


$$$$
1926866
Actelion Java MolfileCreator 1.0

 25 27  0  0  0  0  0  0  0  0999 V2000
    0.0000   -0.0000   -0.0000 F   0  0  0  0  0  0  0  0  0  0  0  0
   -1.3052   -0.7357   -0.0000 C   0  0  0  0  0  0  0  0  0  0  0  0
   -1.3171   -2.2189   -0.0000 C   0  0  0  0  0  0  0  0  0  0  0  0
   -2.6104    0.0237   -0.0000 C   0  0  0  0  0  0  0  0  0  0  0  0
   -0.0356   -2.9545   -0.0000 O   0  0  0  0  0  0  0  0  0  0  0  0
   -2.6223   -2.9545   -0.0000 C   0  0  0  0  0  0  0  0  0  0  0  0
   -3.9156   -0.7119   -0.0000 C   0  0  0  0  0  0  0  0  0  0  0  0
   -3.9275   -2.1951   -0.0000 C   0  0  0  0  0  0  0  0  0  0  0  0
   -5.2208    0.0475   -0.0000 C   0  0  0  0  0  0  0  0  0  0  0  0
   -5.2327    1.5663   -0.0000 O   0  0  0  0  0  0  0  0  0  0  0  0
   -6.5379   -0.6882   -0.0000 N   0  0  0  0  0  0  0  0  0  0  0  0
   -6.5498   -2.1714   -0.0000 C   0  0  0  0  0  0  0  0  0  0  0  0
   -7.8431    0.0712   -0.0000 C   0  0  0  0  0  0  0  0  0  0  0  0
   -7.8550   -2.9071   -0.0000 C   0  0  0  0  0  0  0  0  0  0  0  0
   -5.2564   -2.9071   -0.0000 C   0  0  0  0  0  0  0  0  0  0  0  0
   -9.1483   -0.6645   -0.0000 C   0  0  0  0  0  0  0  0  0  0  0  0
   -7.8550    1.5900   -0.0000 C   0  0  0  0  0  0  0  0  0  0  0  0
   -7.8669   -4.4021   -0.0000 C   0  0  0  0  0  0  0  0  0  0  0  0
   -5.2683   -4.4021   -0.0000 C   0  0  0  0  0  0  0  0  0  0  0  0
  -10.4535    0.0949   -0.0000 C   0  0  0  0  0  0  0  0  0  0  0  0
   -9.1602    2.3494   -0.0000 C   0  0  0  0  0  0  0  0  0  0  0  0
   -6.5854   -5.1378   -0.0000 C   0  0  0  0  0  0  0  0  0  0  0  0
  -10.4654    1.6137   -0.0000 C   0  0  0  0  0  0  0  0  0  0  0  0
   -6.5972   -6.6210   -0.0000 F   0  0  0  0  0  0  0  0  0  0  0  0
  -11.7706    2.3731   -0.0000 O   0  0  0  0  0  0  0  0  0  0  0  0
  1  2  1  0  0  0  0
  2  3  2  0  0  0  0
  2  4  1  0  0  0  0
  3  5  1  0  0  0  0
  3  6  1  0  0  0  0
  4  7  2  0  0  0  0
  6  8  2  0  0  0  0
  7  9  1  0  0  0  0
  9 10  2  0  0  0  0
  9 11  1  0  0  0  0
 11 12  1  0  0  0  0
 11 13  1  0  0  0  0
 12 14  2  0  0  0  0
 12 15  1  0  0  0  0
 13 16  2  0  0  0  0
 13 17  1  0  0  0  0
 14 18  1  0  0  0  0
 15 19  2  0  0  0  0
 16 20  1  0  0  0  0
 17 21  2  0  0  0  0
 18 22  2  0  0  0  0
 20 23  2  0  0  0  0
 22 24  1  0  0  0  0
 23 25  1  0  0  0  0
  7  8  1  0  0  0  0
 19 22  1  0  0  0  0
 21 23  1  0  0  0  0
M  END
>  <MolRegNo>
1926866

>  <m>
=

>  <Value>
21.7

>  <Unit>
nM

>  <Type>
Ki

>  <pValue>
7.66

>  <Ligand Efficiency>
0.42

>  <Binding Efficiency>
22.45

>  <Surface Efficiency>
12.61

>  <Assay Index>
973133

>  <Assay Category>


>  <Assay Organism>
Homo sapiens

>  <Target ID>
19

>  <Target Name>
Estrogen receptor alpha

>  <Target Organism>
Homo sapiens

>  <Target Description>
Target is a single protein chain

>  <Sequence Accession>
P03372

>  <Reference>


>  <Pubmed ID>


>  <DOI>


$$$$
1978012
Actelion Java MolfileCreator 1.0

 25 27  0  0  0  0  0  0  0  0999 V2000
    0.0000   -0.0000   -0.0000 O   0  0  0  0  0  0  0  0  0  0  0  0
   -0.0122    1.2611   -0.0000 C   0  0  0  0  0  0  0  0  0  0  0  0
   -1.3713    2.0569   -0.0000 N   0  0  0  0  0  0  0  0  0  0  0  0
    1.3223    2.0447   -0.0000 C   0  0  0  0  0  0  0  0  0  0  0  0
   -2.7303    1.2978   -0.0000 C   0  0  0  0  0  0  0  0  0  0  0  0
   -1.3835    3.6241   -0.0000 C   0  0  0  0  0  0  0  0  0  0  0  0
    2.6569    1.2856   -0.0000 C   0  0  0  0  0  0  0  0  0  0  0  0
    1.3101    3.6119   -0.0000 C   0  0  0  0  0  0  0  0  0  0  0  0
   -4.0894    2.0814   -0.0000 C   0  0  0  0  0  0  0  0  0  0  0  0
   -2.7426   -0.2449   -0.0000 C   0  0  0  0  0  0  0  0  0  0  0  0
   -2.7426    4.4199   -0.0000 C   0  0  0  0  0  0  0  0  0  0  0  0
   -0.0490    4.4077   -0.0000 C   0  0  0  0  0  0  0  0  0  0  0  0
    3.9914    2.0692   -0.0000 C   0  0  0  0  0  0  0  0  0  0  0  0
    2.6446    0.0490   -0.0000 C   0  0  0  0  0  0  0  0  0  0  0  0
    2.6446    4.3955   -0.0000 C   0  0  0  0  0  0  0  0  0  0  0  0
   -5.4484    1.3223   -0.0000 C   0  0  0  0  0  0  0  0  0  0  0  0
   -4.1016   -1.0040   -0.0000 C   0  0  0  0  0  0  0  0  0  0  0  0
   -2.7548    5.9871   -0.0000 C   0  0  0  0  0  0  0  0  0  0  0  0
   -0.0612    5.9749   -0.0000 C   0  0  0  0  0  0  0  0  0  0  0  0
    3.9792    3.6364   -0.0000 C   0  0  0  0  0  0  0  0  0  0  0  0
    5.0566    1.4570   -0.0000 C   0  0  0  0  0  0  0  0  0  0  0  0
   -5.4607   -0.2204   -0.0000 C   0  0  0  0  0  0  0  0  0  0  0  0
   -1.4203    6.7707   -0.0000 C   0  0  0  0  0  0  0  0  0  0  0  0
   -6.5503   -0.8326   -0.0000 O   0  0  0  0  0  0  0  0  0  0  0  0
   -1.4325    8.0318   -0.0000 O   0  0  0  0  0  0  0  0  0  0  0  0
  1  2  2  0  0  0  0
  2  3  1  0  0  0  0
  2  4  1  0  0  0  0
  3  5  1  0  0  0  0
  3  6  1  0  0  0  0
  4  7  2  0  0  0  0
  4  8  1  0  0  0  0
  5  9  2  0  0  0  0
  5 10  1  0  0  0  0
  6 11  2  0  0  0  0
  6 12  1  0  0  0  0
  7 13  1  0  0  0  0
  7 14  1  0  0  0  0
  8 15  2  0  0  0  0
  9 16  1  0  0  0  0
 10 17  2  0  0  0  0
 11 18  1  0  0  0  0
 12 19  2  0  0  0  0
 13 20  2  0  0  0  0
 13 21  1  0  0  0  0
 16 22  2  0  0  0  0
 18 23  2  0  0  0  0
 22 24  1  0  0  0  0
 23 25  1  0  0  0  0
 15 20  1  0  0  0  0
 17 22  1  0  0  0  0
 19 23  1  0  0  0  0
M  END
>  <MolRegNo>
1978012

>  <m>
=

>  <Value>
7.13

>  <Unit>
nM

>  <Type>
Ki

>  <pValue>
8.15

>  <Ligand Efficiency>
0.45

>  <Binding Efficiency>
24.44

>  <Surface Efficiency>
13.41

>  <Assay Index>
973133

>  <Assay Category>


>  <Assay Organism>
Homo sapiens

>  <Target ID>
19

>  <Target Name>
Estrogen receptor alpha

>  <Target Organism>
Homo sapiens

>  <Target Description>
Target is a single protein chain

>  <Sequence Accession>
P03372

>  <Reference>


>  <Pubmed ID>


>  <DOI>


$$$$
2221194
Actelion Java MolfileCreator 1.0

 34 38  0  0  0  0  0  0  0  0999 V2000
    0.0000   -0.0000   -0.0000 O   0  0  0  0  0  0  0  0  0  0  0  0
   -0.0118    1.5165   -0.0000 C   0  0  0  0  0  0  0  0  0  0  0  0
   -1.3151    2.2866   -0.0000 N   0  0  0  0  0  0  0  0  0  0  0  0
    1.2795    2.2748   -0.0000 C   0  0  0  0  0  0  0  0  0  0  0  0
   -2.6302    1.5520   -0.0000 C   0  0  0  0  0  0  0  0  0  0  0  0
   -1.3269    3.8031   -0.0000 C   0  0  0  0  0  0  0  0  0  0  0  0
    2.5709    1.5402   -0.0000 C   0  0  0  0  0  0  0  0  0  0  0  0
   -3.9334    2.3221   -0.0000 C   0  0  0  0  0  0  0  0  0  0  0  0
    3.8623    2.2985   -0.0000 C   0  0  0  0  0  0  0  0  0  0  0  0
   -5.2485    1.5876   -0.0000 C   0  0  0  0  0  0  0  0  0  0  0  0
    3.8505    3.8150   -0.0000 C   0  0  0  0  0  0  0  0  0  0  0  0
    5.1537    1.5639   -0.0000 C   0  0  0  0  0  0  0  0  0  0  0  0
   -6.5518    2.3577   -0.0000 C   0  0  0  0  0  0  0  0  0  0  0  0
    5.1300    4.5732   -0.0000 C   0  0  0  0  0  0  0  0  0  0  0  0
    6.4451    2.3221   -0.0000 C   0  0  0  0  0  0  0  0  0  0  0  0
    6.4214    3.8386   -0.0000 C   0  0  0  0  0  0  0  0  0  0  0  0
    7.7010    4.6087   -0.0000 C   0  0  0  0  0  0  0  0  0  0  0  0
    7.6891    6.1253   -0.0000 C   0  0  0  0  0  0  0  0  0  0  0  0
    8.9924    3.8742   -0.0000 C   0  0  0  0  0  0  0  0  0  0  0  0
    8.9805    6.8835   -0.0000 C   0  0  0  0  0  0  0  0  0  0  0  0
    6.3741    6.8717   -0.0000 C   0  0  0  0  0  0  0  0  0  0  0  0
    8.9924    2.4288   -0.0000 C   0  0  0  0  0  0  0  0  0  0  0  0
   10.2838    4.3481   -0.0000 C   0  0  0  0  0  0  0  0  0  0  0  0
    8.9687    8.4000   -0.0000 C   0  0  0  0  0  0  0  0  0  0  0  0
    6.3504    8.3763   -0.0000 C   0  0  0  0  0  0  0  0  0  0  0  0
    7.8195    1.2085   -0.0000 C   0  0  0  0  0  0  0  0  0  0  0  0
   10.2719    1.9667   -0.0000 C   0  0  0  0  0  0  0  0  0  0  0  0
    9.2649    3.1633   -0.0000 C   0  0  0  0  0  0  0  0  0  0  0  0
   11.6344    3.8031   -0.0000 C   0  0  0  0  0  0  0  0  0  0  0  0
    7.6536    9.1583   -0.0000 C   0  0  0  0  0  0  0  0  0  0  0  0
    9.2649    1.6231   -0.0000 C   0  0  0  0  0  0  0  0  0  0  0  0
   11.6226    2.3103   -0.0000 C   0  0  0  0  0  0  0  0  0  0  0  0
    7.6299   10.6748   -0.0000 O   0  0  0  0  0  0  0  0  0  0  0  0
   10.6274    1.0900   -0.0000 C   0  0  0  0  0  0  0  0  0  0  0  0
  1  2  2  0  0  0  0
  2  3  1  0  0  0  0
  2  4  1  0  0  0  0
  3  5  1  0  0  0  0
  3  6  1  0  0  0  0
  4  7  2  0  0  0  0
  5  8  1  0  0  0  0
  7  9  1  0  0  0  0
  8 10  1  0  0  0  0
  9 11  2  0  0  0  0
  9 12  1  0  0  0  0
 10 13  1  0  0  0  0
 11 14  1  0  0  0  0
 12 15  2  0  0  0  0
 14 16  2  0  0  0  0
 16 17  1  0  0  0  0
 17 18  1  0  0  0  0
 17 19  2  3  0  0  0
 18 20  2  0  0  0  0
 18 21  1  0  0  0  0
 19 22  1  0  0  0  0
 19 23  1  0  0  0  0
 20 24  1  0  0  0  0
 21 25  2  0  0  0  0
 22 26  1  0  0  0  0
 22 27  1  0  0  0  0
 23 28  1  0  0  0  0
 23 29  1  0  0  0  0
 24 30  2  0  0  0  0
 26 31  1  0  0  0  0
 27 32  1  0  0  0  0
 30 33  1  0  0  0  0
 31 34  1  0  0  0  0
 15 16  1  0  0  0  0
 25 30  1  0  0  0  0
 28 31  1  0  0  0  0
 29 32  1  0  0  0  0
 32 34  1  0  0  0  0
M  END
>  <MolRegNo>
2221194

>  <m>
=

>  <Value>
0.71

>  <Unit>
nM

>  <Type>
Ki

>  <pValue>
9.15

>  <Ligand Efficiency>
0.37

>  <Binding Efficiency>
20.08

>  <Surface Efficiency>
22.57

>  <Assay Index>
1081607

>  <Assay Category>


>  <Assay Organism>
Homo sapiens

>  <Target ID>
19

>  <Target Name>
Estrogen receptor alpha

>  <Target Organism>
Homo sapiens

>  <Target Description>
Target is a single protein chain

>  <Sequence Accession>
P03372

>  <Reference>
J Med Chem 60 (14), 6321-6336 (2017)

>  <Pubmed ID>
28657320

>  <DOI>
10.1021/acs.jmedchem.7b00585

$$$$
2231474
Actelion Java MolfileCreator 1.0

 34 38  0  0  0  0  0  0  0  0999 V2000
    0.0000   -0.0000   -0.0000 F   0  0  0  0  0  0  0  0  0  0  0  0
   -0.0119   -1.4956   -0.0000 C   0  0  0  0  0  0  0  0  0  0  0  0
   -1.3294   -2.2315   -0.0000 F   0  0  0  0  0  0  0  0  0  0  0  0
   -1.3413   -0.7359   -0.0000 F   0  0  0  0  0  0  0  0  0  0  0  0
    1.2701   -2.2434   -0.0000 C   0  0  0  0  0  0  0  0  0  0  0  0
    2.5639   -1.4837   -0.0000 N   0  0  0  0  0  0  0  0  0  0  0  0
    3.8458   -2.2315   -0.0000 C   0  0  0  0  0  0  0  0  0  0  0  0
    3.8340   -3.7271   -0.0000 O   0  0  0  0  0  0  0  0  0  0  0  0
    5.1397   -1.4719   -0.0000 C   0  0  0  0  0  0  0  0  0  0  0  0
    6.4335   -2.2078   -0.0000 C   0  0  0  0  0  0  0  0  0  0  0  0
    7.7273   -1.4481   -0.0000 C   0  0  0  0  0  0  0  0  0  0  0  0
    7.7154    0.0712   -0.0000 C   0  0  0  0  0  0  0  0  0  0  0  0
    9.0211   -2.1841   -0.0000 C   0  0  0  0  0  0  0  0  0  0  0  0
    8.9974    0.8309   -0.0000 C   0  0  0  0  0  0  0  0  0  0  0  0
   10.3149   -1.4244   -0.0000 C   0  0  0  0  0  0  0  0  0  0  0  0
   10.2912    0.0950   -0.0000 C   0  0  0  0  0  0  0  0  0  0  0  0
   11.5731    0.8665   -0.0000 C   0  0  0  0  0  0  0  0  0  0  0  0
   11.5612    2.3858   -0.0000 C   0  0  0  0  0  0  0  0  0  0  0  0
   12.8669    0.1306   -0.0000 C   0  0  0  0  0  0  0  0  0  0  0  0
   12.8551    3.1455   -0.0000 C   0  0  0  0  0  0  0  0  0  0  0  0
   10.2437    3.1336   -0.0000 C   0  0  0  0  0  0  0  0  0  0  0  0
   12.8669   -1.3176   -0.0000 C   0  0  0  0  0  0  0  0  0  0  0  0
   14.1607    0.6054   -0.0000 C   0  0  0  0  0  0  0  0  0  0  0  0
   12.8432    4.6649   -0.0000 C   0  0  0  0  0  0  0  0  0  0  0  0
   10.2200    4.6411   -0.0000 C   0  0  0  0  0  0  0  0  0  0  0  0
   11.6918   -2.5402   -0.0000 C   0  0  0  0  0  0  0  0  0  0  0  0
   14.1489   -1.7805   -0.0000 C   0  0  0  0  0  0  0  0  0  0  0  0
   13.1399   -0.5816   -0.0000 C   0  0  0  0  0  0  0  0  0  0  0  0
   15.5139    0.0593   -0.0000 C   0  0  0  0  0  0  0  0  0  0  0  0
   11.5256    5.4245   -0.0000 C   0  0  0  0  0  0  0  0  0  0  0  0
   13.1399   -2.1247   -0.0000 C   0  0  0  0  0  0  0  0  0  0  0  0
   15.5020   -1.4363   -0.0000 C   0  0  0  0  0  0  0  0  0  0  0  0
   11.5019    6.9439   -0.0000 O   0  0  0  0  0  0  0  0  0  0  0  0
   14.5050   -2.6588   -0.0000 C   0  0  0  0  0  0  0  0  0  0  0  0
  1  2  1  0  0  0  0
  2  3  1  0  0  0  0
  2  4  1  0  0  0  0
  2  5  1  0  0  0  0
  5  6  1  0  0  0  0
  6  7  1  0  0  0  0
  7  8  2  0  0  0  0
  7  9  1  0  0  0  0
  9 10  2  0  0  0  0
 10 11  1  0  0  0  0
 11 12  2  0  0  0  0
 11 13  1  0  0  0  0
 12 14  1  0  0  0  0
 13 15  2  0  0  0  0
 14 16  2  0  0  0  0
 16 17  1  0  0  0  0
 17 18  1  0  0  0  0
 17 19  2  3  0  0  0
 18 20  2  0  0  0  0
 18 21  1  0  0  0  0
 19 22  1  0  0  0  0
 19 23  1  0  0  0  0
 20 24  1  0  0  0  0
 21 25  2  0  0  0  0
 22 26  1  0  0  0  0
 22 27  1  0  0  0  0
 23 28  1  0  0  0  0
 23 29  1  0  0  0  0
 24 30  2  0  0  0  0
 26 31  1  0  0  0  0
 27 32  1  0  0  0  0
 30 33  1  0  0  0  0
 31 34  1  0  0  0  0
 15 16  1  0  0  0  0
 25 30  1  0  0  0  0
 28 31  1  0  0  0  0
 29 32  1  0  0  0  0
 32 34  1  0  0  0  0
M  END
>  <MolRegNo>
2231474

>  <m>
=

>  <Value>
1.33

>  <Unit>
nM

>  <Type>
Ki

>  <pValue>
8.88

>  <Ligand Efficiency>
0.36

>  <Binding Efficiency>
18.99

>  <Surface Efficiency>
17.99

>  <Assay Index>
1081607

>  <Assay Category>


>  <Assay Organism>
Homo sapiens

>  <Target ID>
19

>  <Target Name>
Estrogen receptor alpha

>  <Target Organism>
Homo sapiens

>  <Target Description>
Target is a single protein chain

>  <Sequence Accession>
P03372

>  <Reference>
J Med Chem 60 (14), 6321-6336 (2017)

>  <Pubmed ID>
28657320

>  <DOI>
10.1021/acs.jmedchem.7b00585

$$$$
2223691
Actelion Java MolfileCreator 1.0

 34 38  0  0  0  0  0  0  0  0999 V2000
    0.0000   -0.0000   -0.0000 O   0  0  0  0  0  0  0  0  0  0  0  0
   -0.0118    1.5168   -0.0000 C   0  0  0  0  0  0  0  0  0  0  0  0
   -1.3153    2.2870   -0.0000 N   0  0  0  0  0  0  0  0  0  0  0  0
    1.2798    2.2752   -0.0000 C   0  0  0  0  0  0  0  0  0  0  0  0
   -2.6307    1.5523   -0.0000 C   0  0  0  0  0  0  0  0  0  0  0  0
    2.5714    1.5405   -0.0000 C   0  0  0  0  0  0  0  0  0  0  0  0
   -3.9341    2.3226   -0.0000 C   0  0  0  0  0  0  0  0  0  0  0  0
    3.8630    2.2989   -0.0000 C   0  0  0  0  0  0  0  0  0  0  0  0
   -5.2495    1.5879   -0.0000 C   0  0  0  0  0  0  0  0  0  0  0  0
    3.8512    3.8156   -0.0000 C   0  0  0  0  0  0  0  0  0  0  0  0
    5.1547    1.5642   -0.0000 C   0  0  0  0  0  0  0  0  0  0  0  0
   -6.5529    2.3581   -0.0000 C   0  0  0  0  0  0  0  0  0  0  0  0
    5.1310    4.5740   -0.0000 C   0  0  0  0  0  0  0  0  0  0  0  0
    6.4463    2.3226   -0.0000 C   0  0  0  0  0  0  0  0  0  0  0  0
   -7.8683    1.6234   -0.0000 N   0  0  0  0  0  0  0  0  0  0  0  0
    6.4226    3.8393   -0.0000 C   0  0  0  0  0  0  0  0  0  0  0  0
    7.7024    4.6096   -0.0000 C   0  0  0  0  0  0  0  0  0  0  0  0
    7.6905    6.1264   -0.0000 C   0  0  0  0  0  0  0  0  0  0  0  0
    8.9940    3.8749   -0.0000 C   0  0  0  0  0  0  0  0  0  0  0  0
    8.9822    6.8847   -0.0000 C   0  0  0  0  0  0  0  0  0  0  0  0
    6.3752    6.8729   -0.0000 C   0  0  0  0  0  0  0  0  0  0  0  0
    8.9940    2.4292   -0.0000 C   0  0  0  0  0  0  0  0  0  0  0  0
   10.2856    4.3489   -0.0000 C   0  0  0  0  0  0  0  0  0  0  0  0
    8.9703    8.4015   -0.0000 C   0  0  0  0  0  0  0  0  0  0  0  0
    6.3515    8.3778   -0.0000 C   0  0  0  0  0  0  0  0  0  0  0  0
    7.8209    1.2087   -0.0000 C   0  0  0  0  0  0  0  0  0  0  0  0
   10.2738    1.9671   -0.0000 C   0  0  0  0  0  0  0  0  0  0  0  0
    9.2665    3.1639   -0.0000 C   0  0  0  0  0  0  0  0  0  0  0  0
   11.6365    3.8038   -0.0000 C   0  0  0  0  0  0  0  0  0  0  0  0
    7.6550    9.1599   -0.0000 C   0  0  0  0  0  0  0  0  0  0  0  0
    9.2665    1.6234   -0.0000 C   0  0  0  0  0  0  0  0  0  0  0  0
   11.6247    2.3107   -0.0000 C   0  0  0  0  0  0  0  0  0  0  0  0
    7.6313   10.6767   -0.0000 O   0  0  0  0  0  0  0  0  0  0  0  0
   10.6293    1.0902   -0.0000 C   0  0  0  0  0  0  0  0  0  0  0  0
  1  2  2  0  0  0  0
  2  3  1  0  0  0  0
  2  4  1  0  0  0  0
  3  5  1  0  0  0  0
  4  6  2  0  0  0  0
  5  7  1  0  0  0  0
  6  8  1  0  0  0  0
  7  9  1  0  0  0  0
  8 10  2  0  0  0  0
  8 11  1  0  0  0  0
  9 12  1  0  0  0  0
 10 13  1  0  0  0  0
 11 14  2  0  0  0  0
 12 15  1  0  0  0  0
 13 16  2  0  0  0  0
 16 17  1  0  0  0  0
 17 18  1  0  0  0  0
 17 19  2  3  0  0  0
 18 20  2  0  0  0  0
 18 21  1  0  0  0  0
 19 22  1  0  0  0  0
 19 23  1  0  0  0  0
 20 24  1  0  0  0  0
 21 25  2  0  0  0  0
 22 26  1  0  0  0  0
 22 27  1  0  0  0  0
 23 28  1  0  0  0  0
 23 29  1  0  0  0  0
 24 30  2  0  0  0  0
 26 31  1  0  0  0  0
 27 32  1  0  0  0  0
 30 33  1  0  0  0  0
 31 34  1  0  0  0  0
 14 16  1  0  0  0  0
 25 30  1  0  0  0  0
 28 31  1  0  0  0  0
 29 32  1  0  0  0  0
 32 34  1  0  0  0  0
M  END
>  <MolRegNo>
2223691

>  <m>
=

>  <Value>
0.32

>  <Unit>
nM

>  <Type>
Ki

>  <pValue>
9.49

>  <Ligand Efficiency>
0.38

>  <Binding Efficiency>
20.79

>  <Surface Efficiency>
12.6

>  <Assay Index>
1081607

>  <Assay Category>


>  <Assay Organism>
Homo sapiens

>  <Target ID>
19

>  <Target Name>
Estrogen receptor alpha

>  <Target Organism>
Homo sapiens

>  <Target Description>
Target is a single protein chain

>  <Sequence Accession>
P03372

>  <Reference>
J Med Chem 60 (14), 6321-6336 (2017)

>  <Pubmed ID>
28657320

>  <DOI>
10.1021/acs.jmedchem.7b00585

$$$$
2221880
Actelion Java MolfileCreator 1.0

 34 38  0  0  0  0  0  0  0  0999 V2000
    0.0000   -0.0000   -0.0000 O   0  0  0  0  0  0  0  0  0  0  0  0
   -0.0118    1.5168   -0.0000 C   0  0  0  0  0  0  0  0  0  0  0  0
   -1.3153    2.2870   -0.0000 N   0  0  0  0  0  0  0  0  0  0  0  0
    1.2798    2.2752   -0.0000 C   0  0  0  0  0  0  0  0  0  0  0  0
   -2.6307    1.5523   -0.0000 C   0  0  0  0  0  0  0  0  0  0  0  0
    2.5714    1.5405   -0.0000 C   0  0  0  0  0  0  0  0  0  0  0  0
   -3.9341    2.3226   -0.0000 C   0  0  0  0  0  0  0  0  0  0  0  0
    3.8630    2.2989   -0.0000 C   0  0  0  0  0  0  0  0  0  0  0  0
   -5.2495    1.5879   -0.0000 C   0  0  0  0  0  0  0  0  0  0  0  0
    3.8512    3.8156   -0.0000 C   0  0  0  0  0  0  0  0  0  0  0  0
    5.1547    1.5642   -0.0000 C   0  0  0  0  0  0  0  0  0  0  0  0
   -6.5529    2.3581   -0.0000 C   0  0  0  0  0  0  0  0  0  0  0  0
    5.1310    4.5740   -0.0000 C   0  0  0  0  0  0  0  0  0  0  0  0
    6.4463    2.3226   -0.0000 C   0  0  0  0  0  0  0  0  0  0  0  0
   -7.8683    1.6234   -0.0000 C   0  0  0  0  0  0  0  0  0  0  0  0
    6.4226    3.8393   -0.0000 C   0  0  0  0  0  0  0  0  0  0  0  0
    7.7024    4.6096   -0.0000 C   0  0  0  0  0  0  0  0  0  0  0  0
    7.6905    6.1264   -0.0000 C   0  0  0  0  0  0  0  0  0  0  0  0
    8.9940    3.8749   -0.0000 C   0  0  0  0  0  0  0  0  0  0  0  0
    8.9822    6.8847   -0.0000 C   0  0  0  0  0  0  0  0  0  0  0  0
    6.3752    6.8729   -0.0000 C   0  0  0  0  0  0  0  0  0  0  0  0
    8.9940    2.4292   -0.0000 C   0  0  0  0  0  0  0  0  0  0  0  0
   10.2856    4.3489   -0.0000 C   0  0  0  0  0  0  0  0  0  0  0  0
    8.9703    8.4015   -0.0000 C   0  0  0  0  0  0  0  0  0  0  0  0
    6.3515    8.3778   -0.0000 C   0  0  0  0  0  0  0  0  0  0  0  0
    7.8209    1.2087   -0.0000 C   0  0  0  0  0  0  0  0  0  0  0  0
   10.2738    1.9671   -0.0000 C   0  0  0  0  0  0  0  0  0  0  0  0
    9.2665    3.1639   -0.0000 C   0  0  0  0  0  0  0  0  0  0  0  0
   11.6365    3.8038   -0.0000 C   0  0  0  0  0  0  0  0  0  0  0  0
    7.6550    9.1599   -0.0000 C   0  0  0  0  0  0  0  0  0  0  0  0
    9.2665    1.6234   -0.0000 C   0  0  0  0  0  0  0  0  0  0  0  0
   11.6247    2.3107   -0.0000 C   0  0  0  0  0  0  0  0  0  0  0  0
    7.6313   10.6767   -0.0000 O   0  0  0  0  0  0  0  0  0  0  0  0
   10.6293    1.0902   -0.0000 C   0  0  0  0  0  0  0  0  0  0  0  0
  1  2  2  0  0  0  0
  2  3  1  0  0  0  0
  2  4  1  0  0  0  0
  3  5  1  0  0  0  0
  4  6  2  0  0  0  0
  5  7  1  0  0  0  0
  6  8  1  0  0  0  0
  7  9  1  0  0  0  0
  8 10  2  0  0  0  0
  8 11  1  0  0  0  0
  9 12  1  0  0  0  0
 10 13  1  0  0  0  0
 11 14  2  0  0  0  0
 12 15  1  0  0  0  0
 13 16  2  0  0  0  0
 16 17  1  0  0  0  0
 17 18  1  0  0  0  0
 17 19  2  3  0  0  0
 18 20  2  0  0  0  0
 18 21  1  0  0  0  0
 19 22  1  0  0  0  0
 19 23  1  0  0  0  0
 20 24  1  0  0  0  0
 21 25  2  0  0  0  0
 22 26  1  0  0  0  0
 22 27  1  0  0  0  0
 23 28  1  0  0  0  0
 23 29  1  0  0  0  0
 24 30  2  0  0  0  0
 26 31  1  0  0  0  0
 27 32  1  0  0  0  0
 30 33  1  0  0  0  0
 31 34  1  0  0  0  0
 14 16  1  0  0  0  0
 25 30  1  0  0  0  0
 28 31  1  0  0  0  0
 29 32  1  0  0  0  0
 32 34  1  0  0  0  0
M  END
>  <MolRegNo>
2221880

>  <m>
=

>  <Value>
0.74

>  <Unit>
nM

>  <Type>
Ki

>  <pValue>
9.13

>  <Ligand Efficiency>
0.37

>  <Binding Efficiency>
20.04

>  <Surface Efficiency>
18.51

>  <Assay Index>
1081607

>  <Assay Category>


>  <Assay Organism>
Homo sapiens

>  <Target ID>
19

>  <Target Name>
Estrogen receptor alpha

>  <Target Organism>
Homo sapiens

>  <Target Description>
Target is a single protein chain

>  <Sequence Accession>
P03372

>  <Reference>
J Med Chem 60 (14), 6321-6336 (2017)

>  <Pubmed ID>
28657320

>  <DOI>
10.1021/acs.jmedchem.7b00585

$$$$
2211347
Actelion Java MolfileCreator 1.0

 32 36  0  0  0  0  0  0  0  0999 V2000
    0.0000   -0.0000   -0.0000 O   0  0  0  0  0  0  0  0  0  0  0  0
   -0.0119    1.5174   -0.0000 C   0  0  0  0  0  0  0  0  0  0  0  0
   -1.3158    2.2879   -0.0000 N   0  0  0  0  0  0  0  0  0  0  0  0
    1.2803    2.2760   -0.0000 C   0  0  0  0  0  0  0  0  0  0  0  0
   -2.6317    1.5529   -0.0000 C   0  0  0  0  0  0  0  0  0  0  0  0
    2.5724    1.5411   -0.0000 C   0  0  0  0  0  0  0  0  0  0  0  0
   -3.9356    2.3235   -0.0000 C   0  0  0  0  0  0  0  0  0  0  0  0
    3.8645    2.2997   -0.0000 C   0  0  0  0  0  0  0  0  0  0  0  0
   -5.2515    1.5885   -0.0000 C   0  0  0  0  0  0  0  0  0  0  0  0
    3.8527    3.8171   -0.0000 C   0  0  0  0  0  0  0  0  0  0  0  0
    5.1566    1.5648   -0.0000 C   0  0  0  0  0  0  0  0  0  0  0  0
    5.1329    4.5758   -0.0000 C   0  0  0  0  0  0  0  0  0  0  0  0
    6.4488    2.3235   -0.0000 C   0  0  0  0  0  0  0  0  0  0  0  0
    6.4251    3.8408   -0.0000 C   0  0  0  0  0  0  0  0  0  0  0  0
    7.7053    4.6113   -0.0000 C   0  0  0  0  0  0  0  0  0  0  0  0
    7.6935    6.1287   -0.0000 C   0  0  0  0  0  0  0  0  0  0  0  0
    8.9974    3.8764   -0.0000 C   0  0  0  0  0  0  0  0  0  0  0  0
    8.9856    6.8874   -0.0000 C   0  0  0  0  0  0  0  0  0  0  0  0
    6.3776    6.8755   -0.0000 C   0  0  0  0  0  0  0  0  0  0  0  0
    8.9974    2.4301   -0.0000 C   0  0  0  0  0  0  0  0  0  0  0  0
   10.2896    4.3505   -0.0000 C   0  0  0  0  0  0  0  0  0  0  0  0
    8.9737    8.4047   -0.0000 C   0  0  0  0  0  0  0  0  0  0  0  0
    6.3539    8.3810   -0.0000 C   0  0  0  0  0  0  0  0  0  0  0  0
    7.8239    1.2091   -0.0000 C   0  0  0  0  0  0  0  0  0  0  0  0
   10.2777    1.9678   -0.0000 C   0  0  0  0  0  0  0  0  0  0  0  0
    9.2701    3.1651   -0.0000 C   0  0  0  0  0  0  0  0  0  0  0  0
   11.6410    3.8052   -0.0000 C   0  0  0  0  0  0  0  0  0  0  0  0
    7.6579    9.1634   -0.0000 C   0  0  0  0  0  0  0  0  0  0  0  0
    9.2701    1.6240   -0.0000 C   0  0  0  0  0  0  0  0  0  0  0  0
   11.6291    2.3116   -0.0000 C   0  0  0  0  0  0  0  0  0  0  0  0
    7.6342   10.6808   -0.0000 O   0  0  0  0  0  0  0  0  0  0  0  0
   10.6333    1.0906   -0.0000 C   0  0  0  0  0  0  0  0  0  0  0  0
  1  2  2  0  0  0  0
  2  3  1  0  0  0  0
  2  4  1  0  0  0  0
  3  5  1  0  0  0  0
  4  6  2  0  0  0  0
  5  7  1  0  0  0  0
  6  8  1  0  0  0  0
  7  9  1  0  0  0  0
  8 10  2  0  0  0  0
  8 11  1  0  0  0  0
 10 12  1  0  0  0  0
 11 13  2  0  0  0  0
 12 14  2  0  0  0  0
 14 15  1  0  0  0  0
 15 16  1  0  0  0  0
 15 17  2  3  0  0  0
 16 18  2  0  0  0  0
 16 19  1  0  0  0  0
 17 20  1  0  0  0  0
 17 21  1  0  0  0  0
 18 22  1  0  0  0  0
 19 23  2  0  0  0  0
 20 24  1  0  0  0  0
 20 25  1  0  0  0  0
 21 26  1  0  0  0  0
 21 27  1  0  0  0  0
 22 28  2  0  0  0  0
 24 29  1  0  0  0  0
 25 30  1  0  0  0  0
 28 31  1  0  0  0  0
 29 32  1  0  0  0  0
 13 14  1  0  0  0  0
 23 28  1  0  0  0  0
 26 29  1  0  0  0  0
 27 30  1  0  0  0  0
 30 32  1  0  0  0  0
M  END
>  <MolRegNo>
2211347

>  <m>
=

>  <Value>
1.1

>  <Unit>
nM

>  <Type>
Ki

>  <pValue>
8.96

>  <Ligand Efficiency>
0.38

>  <Binding Efficiency>
20.95

>  <Surface Efficiency>
18.16

>  <Assay Index>
1081607

>  <Assay Category>


>  <Assay Organism>
Homo sapiens

>  <Target ID>
19

>  <Target Name>
Estrogen receptor alpha

>  <Target Organism>
Homo sapiens

>  <Target Description>
Target is a single protein chain

>  <Sequence Accession>
P03372

>  <Reference>
J Med Chem 60 (14), 6321-6336 (2017)

>  <Pubmed ID>
28657320

>  <DOI>
10.1021/acs.jmedchem.7b00585

$$$$
2219441
Actelion Java MolfileCreator 1.0

 29 33  0  0  0  0  0  0  0  0999 V2000
    0.0000   -0.0000   -0.0000 O   0  0  0  0  0  0  0  0  0  0  0  0
   -0.0119    1.5182   -0.0000 C   0  0  0  0  0  0  0  0  0  0  0  0
   -1.3166    2.2892   -0.0000 N   0  0  0  0  0  0  0  0  0  0  0  0
    1.2810    2.2774   -0.0000 C   0  0  0  0  0  0  0  0  0  0  0  0
    2.5739    1.5420   -0.0000 C   0  0  0  0  0  0  0  0  0  0  0  0
    3.8668    2.3011   -0.0000 C   0  0  0  0  0  0  0  0  0  0  0  0
    3.8549    3.8193   -0.0000 C   0  0  0  0  0  0  0  0  0  0  0  0
    5.1597    1.5657   -0.0000 C   0  0  0  0  0  0  0  0  0  0  0  0
    5.1359    4.5785   -0.0000 C   0  0  0  0  0  0  0  0  0  0  0  0
    6.4525    2.3248   -0.0000 C   0  0  0  0  0  0  0  0  0  0  0  0
    6.4288    3.8431   -0.0000 C   0  0  0  0  0  0  0  0  0  0  0  0
    7.7098    4.6140   -0.0000 C   0  0  0  0  0  0  0  0  0  0  0  0
    7.6980    6.1323   -0.0000 C   0  0  0  0  0  0  0  0  0  0  0  0
    9.0027    3.8786   -0.0000 C   0  0  0  0  0  0  0  0  0  0  0  0
    8.9909    6.8914   -0.0000 C   0  0  0  0  0  0  0  0  0  0  0  0
    6.3814    6.8795   -0.0000 C   0  0  0  0  0  0  0  0  0  0  0  0
    9.0027    2.4316   -0.0000 C   0  0  0  0  0  0  0  0  0  0  0  0
   10.2956    4.3531   -0.0000 C   0  0  0  0  0  0  0  0  0  0  0  0
    8.9790    8.4097   -0.0000 C   0  0  0  0  0  0  0  0  0  0  0  0
    6.3576    8.3859   -0.0000 C   0  0  0  0  0  0  0  0  0  0  0  0
    7.8284    1.2099   -0.0000 C   0  0  0  0  0  0  0  0  0  0  0  0
   10.2837    1.9690   -0.0000 C   0  0  0  0  0  0  0  0  0  0  0  0
    9.2755    3.1670   -0.0000 C   0  0  0  0  0  0  0  0  0  0  0  0
   11.6478    3.8075   -0.0000 C   0  0  0  0  0  0  0  0  0  0  0  0
    7.6624    9.1688   -0.0000 C   0  0  0  0  0  0  0  0  0  0  0  0
    9.2755    1.6250   -0.0000 C   0  0  0  0  0  0  0  0  0  0  0  0
   11.6359    2.3130   -0.0000 C   0  0  0  0  0  0  0  0  0  0  0  0
    7.6387   10.6870   -0.0000 O   0  0  0  0  0  0  0  0  0  0  0  0
   10.6396    1.0912   -0.0000 C   0  0  0  0  0  0  0  0  0  0  0  0
  1  2  2  0  0  0  0
  2  3  1  0  0  0  0
  2  4  1  0  0  0  0
  4  5  2  0  0  0  0
  5  6  1  0  0  0  0
  6  7  2  0  0  0  0
  6  8  1  0  0  0  0
  7  9  1  0  0  0  0
  8 10  2  0  0  0  0
  9 11  2  0  0  0  0
 11 12  1  0  0  0  0
 12 13  1  0  0  0  0
 12 14  2  3  0  0  0
 13 15  2  0  0  0  0
 13 16  1  0  0  0  0
 14 17  1  0  0  0  0
 14 18  1  0  0  0  0
 15 19  1  0  0  0  0
 16 20  2  0  0  0  0
 17 21  1  0  0  0  0
 17 22  1  0  0  0  0
 18 23  1  0  0  0  0
 18 24  1  0  0  0  0
 19 25  2  0  0  0  0
 21 26  1  0  0  0  0
 22 27  1  0  0  0  0
 25 28  1  0  0  0  0
 26 29  1  0  0  0  0
 10 11  1  0  0  0  0
 20 25  1  0  0  0  0
 23 26  1  0  0  0  0
 24 27  1  0  0  0  0
 27 29  1  0  0  0  0
M  END
>  <MolRegNo>
2219441

>  <m>
=

>  <Value>
0.27

>  <Unit>
nM

>  <Type>
Ki

>  <pValue>
9.57

>  <Ligand Efficiency>
0.45

>  <Binding Efficiency>
24.82

>  <Surface Efficiency>
15.11

>  <Assay Index>
1081607

>  <Assay Category>


>  <Assay Organism>
Homo sapiens

>  <Target ID>
19

>  <Target Name>
Estrogen receptor alpha

>  <Target Organism>
Homo sapiens

>  <Target Description>
Target is a single protein chain

>  <Sequence Accession>
P03372

>  <Reference>
J Med Chem 60 (14), 6321-6336 (2017)

>  <Pubmed ID>
28657320

>  <DOI>
10.1021/acs.jmedchem.7b00585

$$$$
2237473
Actelion Java MolfileCreator 1.0

 33 37  0  0  0  0  0  0  0  0999 V2000
    0.0000   -0.0000   -0.0000 S   0  0  0  0  0  0  0  0  0  0  0  0
    0.7357   -1.2815   -0.0000 O   0  0  0  0  0  0  0  0  0  0  0  0
   -0.7594   -1.2815   -0.0000 O   0  0  0  0  0  0  0  0  0  0  0  0
   -1.3053    0.7594   -0.0000 N   0  0  0  0  0  0  0  0  0  0  0  0
    1.2934    0.7594   -0.0000 C   0  0  0  0  0  0  0  0  0  0  0  0
   -2.6224    0.0237   -0.0000 C   0  0  0  0  0  0  0  0  0  0  0  0
    2.5868    0.0237   -0.0000 C   0  0  0  0  0  0  0  0  0  0  0  0
   -3.9395    0.7832   -0.0000 C   0  0  0  0  0  0  0  0  0  0  0  0
    3.8802    0.7832   -0.0000 C   0  0  0  0  0  0  0  0  0  0  0  0
   -5.2567    0.0475   -0.0000 C   0  0  0  0  0  0  0  0  0  0  0  0
    3.8683    2.3020   -0.0000 C   0  0  0  0  0  0  0  0  0  0  0  0
    5.1736    0.0475   -0.0000 C   0  0  0  0  0  0  0  0  0  0  0  0
    5.1499    3.0614   -0.0000 C   0  0  0  0  0  0  0  0  0  0  0  0
    6.4670    0.8069   -0.0000 C   0  0  0  0  0  0  0  0  0  0  0  0
    6.4433    2.3257   -0.0000 C   0  0  0  0  0  0  0  0  0  0  0  0
    7.7248    3.0970   -0.0000 C   0  0  0  0  0  0  0  0  0  0  0  0
    7.7129    4.6159   -0.0000 C   0  0  0  0  0  0  0  0  0  0  0  0
    9.0182    2.3613   -0.0000 C   0  0  0  0  0  0  0  0  0  0  0  0
    9.0063    5.3753   -0.0000 C   0  0  0  0  0  0  0  0  0  0  0  0
    6.3958    5.3634   -0.0000 C   0  0  0  0  0  0  0  0  0  0  0  0
    9.0182    0.9137   -0.0000 C   0  0  0  0  0  0  0  0  0  0  0  0
   10.3116    2.8360   -0.0000 C   0  0  0  0  0  0  0  0  0  0  0  0
    8.9945    6.8942   -0.0000 C   0  0  0  0  0  0  0  0  0  0  0  0
    6.3721    6.8704   -0.0000 C   0  0  0  0  0  0  0  0  0  0  0  0
    7.8435   -0.3085   -0.0000 C   0  0  0  0  0  0  0  0  0  0  0  0
   10.2997    0.4509   -0.0000 C   0  0  0  0  0  0  0  0  0  0  0  0
    9.2911    1.6494   -0.0000 C   0  0  0  0  0  0  0  0  0  0  0  0
   11.6643    2.2901   -0.0000 C   0  0  0  0  0  0  0  0  0  0  0  0
    7.6773    7.6536   -0.0000 C   0  0  0  0  0  0  0  0  0  0  0  0
    9.2911    0.1068   -0.0000 C   0  0  0  0  0  0  0  0  0  0  0  0
   11.6525    0.7950   -0.0000 C   0  0  0  0  0  0  0  0  0  0  0  0
    7.6536    9.1724   -0.0000 O   0  0  0  0  0  0  0  0  0  0  0  0
   10.6557   -0.4272   -0.0000 C   0  0  0  0  0  0  0  0  0  0  0  0
  1  2  2  0  0  0  0
  1  3  2  0  0  0  0
  1  4  1  0  0  0  0
  1  5  1  0  0  0  0
  4  6  1  0  0  0  0
  5  7  2  0  0  0  0
  6  8  1  0  0  0  0
  7  9  1  0  0  0  0
  8 10  1  0  0  0  0
  9 11  2  0  0  0  0
  9 12  1  0  0  0  0
 11 13  1  0  0  0  0
 12 14  2  0  0  0  0
 13 15  2  0  0  0  0
 15 16  1  0  0  0  0
 16 17  1  0  0  0  0
 16 18  2  3  0  0  0
 17 19  2  0  0  0  0
 17 20  1  0  0  0  0
 18 21  1  0  0  0  0
 18 22  1  0  0  0  0
 19 23  1  0  0  0  0
 20 24  2  0  0  0  0
 21 25  1  0  0  0  0
 21 26  1  0  0  0  0
 22 27  1  0  0  0  0
 22 28  1  0  0  0  0
 23 29  2  0  0  0  0
 25 30  1  0  0  0  0
 26 31  1  0  0  0  0
 29 32  1  0  0  0  0
 30 33  1  0  0  0  0
 14 15  1  0  0  0  0
 24 29  1  0  0  0  0
 27 30  1  0  0  0  0
 28 31  1  0  0  0  0
 31 33  1  0  0  0  0
M  END
>  <MolRegNo>
2237473

>  <m>
=

>  <Value>
0.38

>  <Unit>
nM

>  <Type>
Ki

>  <pValue>
9.42

>  <Ligand Efficiency>
0.39

>  <Binding Efficiency>
20.32

>  <Surface Efficiency>
14.19

>  <Assay Index>
1081607

>  <Assay Category>


>  <Assay Organism>
Homo sapiens

>  <Target ID>
19

>  <Target Name>
Estrogen receptor alpha

>  <Target Organism>
Homo sapiens

>  <Target Description>
Target is a single protein chain

>  <Sequence Accession>
P03372

>  <Reference>
J Med Chem 60 (14), 6321-6336 (2017)

>  <Pubmed ID>
28657320

>  <DOI>
10.1021/acs.jmedchem.7b00585

$$$$
2208633
Actelion Java MolfileCreator 1.0

 28 32  0  0  0  0  0  0  0  0999 V2000
    0.0000   -0.0000   -0.0000 O   0  0  0  0  0  0  0  0  0  0  0  0
    0.0000   -1.4925   -0.0000 C   0  0  0  0  0  0  0  0  0  0  0  0
    1.3015   -2.2328   -0.0000 C   0  0  0  0  0  0  0  0  0  0  0  0
   -1.3134   -2.2448   -0.0000 C   0  0  0  0  0  0  0  0  0  0  0  0
    1.2895   -3.7253   -0.0000 C   0  0  0  0  0  0  0  0  0  0  0  0
   -1.3134   -3.7373   -0.0000 C   0  0  0  0  0  0  0  0  0  0  0  0
   -0.0239   -4.4656   -0.0000 C   0  0  0  0  0  0  0  0  0  0  0  0
   -0.0358   -5.9581   -0.0000 C   0  0  0  0  0  0  0  0  0  0  0  0
   -1.3492   -6.7104   -0.0000 C   0  0  0  0  0  0  0  0  0  0  0  0
    1.2537   -6.6984   -0.0000 C   0  0  0  0  0  0  0  0  0  0  0  0
   -2.6627   -5.9462   -0.0000 C   0  0  0  0  0  0  0  0  0  0  0  0
   -1.3612   -8.2148   -0.0000 C   0  0  0  0  0  0  0  0  0  0  0  0
    1.2537   -8.1432   -0.0000 C   0  0  0  0  0  0  0  0  0  0  0  0
    2.5552   -6.2208   -0.0000 C   0  0  0  0  0  0  0  0  0  0  0  0
   -3.9761   -6.6865   -0.0000 C   0  0  0  0  0  0  0  0  0  0  0  0
   -2.6865   -8.9551   -0.0000 C   0  0  0  0  0  0  0  0  0  0  0  0
    0.0716   -9.3730   -0.0000 C   0  0  0  0  0  0  0  0  0  0  0  0
    2.5313   -8.6089   -0.0000 C   0  0  0  0  0  0  0  0  0  0  0  0
    1.5283   -7.4148   -0.0000 C   0  0  0  0  0  0  0  0  0  0  0  0
    3.9164   -6.7701   -0.0000 C   0  0  0  0  0  0  0  0  0  0  0  0
   -3.9880   -8.1910   -0.0000 C   0  0  0  0  0  0  0  0  0  0  0  0
    1.5164   -8.9551   -0.0000 C   0  0  0  0  0  0  0  0  0  0  0  0
    3.8806   -8.2626   -0.0000 C   0  0  0  0  0  0  0  0  0  0  0  0
   -5.3014   -8.9313   -0.0000 C   0  0  0  0  0  0  0  0  0  0  0  0
    2.8895   -9.4924   -0.0000 C   0  0  0  0  0  0  0  0  0  0  0  0
   -6.6149   -8.1671   -0.0000 C   0  0  0  0  0  0  0  0  0  0  0  0
   -7.9283   -8.9074   -0.0000 C   0  0  0  0  0  0  0  0  0  0  0  0
   -9.2417   -9.6477   -0.0000 N   0  0  0  0  0  0  0  0  0  0  0  0
  1  2  1  0  0  0  0
  2  3  2  0  0  0  0
  2  4  1  0  0  0  0
  3  5  1  0  0  0  0
  4  6  2  0  0  0  0
  5  7  2  0  0  0  0
  7  8  1  0  0  0  0
  8  9  1  0  0  0  0
  8 10  2  3  0  0  0
  9 11  2  0  0  0  0
  9 12  1  0  0  0  0
 10 13  1  0  0  0  0
 10 14  1  0  0  0  0
 11 15  1  0  0  0  0
 12 16  2  0  0  0  0
 13 17  1  0  0  0  0
 13 18  1  0  0  0  0
 14 19  1  0  0  0  0
 14 20  1  0  0  0  0
 15 21  2  0  0  0  0
 17 22  1  0  0  0  0
 18 23  1  0  0  0  0
 21 24  1  0  0  0  0
 22 25  1  0  0  0  0
 24 26  2  0  0  0  0
 26 27  1  0  0  0  0
 27 28  3  0  0  0  0
  6  7  1  0  0  0  0
 16 21  1  0  0  0  0
 19 22  1  0  0  0  0
 20 23  1  0  0  0  0
 23 25  1  0  0  0  0
M  END
>  <MolRegNo>
2208633

>  <m>
=

>  <Value>
1.4

>  <Unit>
nM

>  <Type>
Ki

>  <pValue>
8.85

>  <Ligand Efficiency>
0.43

>  <Binding Efficiency>
24.09

>  <Surface Efficiency>
20.11

>  <Assay Index>
1081607

>  <Assay Category>


>  <Assay Organism>
Homo sapiens

>  <Target ID>
19

>  <Target Name>
Estrogen receptor alpha

>  <Target Organism>
Homo sapiens

>  <Target Description>
Target is a single protein chain

>  <Sequence Accession>
P03372

>  <Reference>
J Med Chem 60 (14), 6321-6336 (2017)

>  <Pubmed ID>
28657320

>  <DOI>
10.1021/acs.jmedchem.7b00585

$$$$
2229735
Actelion Java MolfileCreator 1.0

 34 38  0  0  0  0  0  0  0  0999 V2000
    0.0000   -0.0000   -0.0000 O   0  0  0  0  0  0  0  0  0  0  0  0
   -0.0118    1.5164   -0.0000 C   0  0  0  0  0  0  0  0  0  0  0  0
   -1.3269    2.2747   -0.0000 O   0  0  0  0  0  0  0  0  0  0  0  0
    1.2795    2.2747   -0.0000 C   0  0  0  0  0  0  0  0  0  0  0  0
   -2.6419    1.5401   -0.0000 C   0  0  0  0  0  0  0  0  0  0  0  0
    2.5708    1.5401   -0.0000 C   0  0  0  0  0  0  0  0  0  0  0  0
   -3.9569    2.2983   -0.0000 C   0  0  0  0  0  0  0  0  0  0  0  0
    3.8622    2.2983   -0.0000 C   0  0  0  0  0  0  0  0  0  0  0  0
   -5.2720    1.5638   -0.0000 C   0  0  0  0  0  0  0  0  0  0  0  0
    3.8503    3.8148   -0.0000 C   0  0  0  0  0  0  0  0  0  0  0  0
    5.1535    1.5638   -0.0000 C   0  0  0  0  0  0  0  0  0  0  0  0
   -6.5870    2.3220   -0.0000 C   0  0  0  0  0  0  0  0  0  0  0  0
    5.1298    4.5730   -0.0000 C   0  0  0  0  0  0  0  0  0  0  0  0
    6.4449    2.3220   -0.0000 C   0  0  0  0  0  0  0  0  0  0  0  0
   -7.9020    1.5875   -0.0000 O   0  0  0  0  0  0  0  0  0  0  0  0
    6.4212    3.8385   -0.0000 C   0  0  0  0  0  0  0  0  0  0  0  0
    7.7006    4.6085   -0.0000 C   0  0  0  0  0  0  0  0  0  0  0  0
    7.6888    6.1250   -0.0000 C   0  0  0  0  0  0  0  0  0  0  0  0
    8.9920    3.8740   -0.0000 C   0  0  0  0  0  0  0  0  0  0  0  0
    8.9801    6.8832   -0.0000 C   0  0  0  0  0  0  0  0  0  0  0  0
    6.3738    6.8713   -0.0000 C   0  0  0  0  0  0  0  0  0  0  0  0
    8.9920    2.4287   -0.0000 C   0  0  0  0  0  0  0  0  0  0  0  0
   10.2833    4.3479   -0.0000 C   0  0  0  0  0  0  0  0  0  0  0  0
    8.9683    8.3996   -0.0000 C   0  0  0  0  0  0  0  0  0  0  0  0
    6.3501    8.3759   -0.0000 C   0  0  0  0  0  0  0  0  0  0  0  0
    7.8191    1.2084   -0.0000 C   0  0  0  0  0  0  0  0  0  0  0  0
   10.2715    1.9666   -0.0000 C   0  0  0  0  0  0  0  0  0  0  0  0
    9.2645    3.1632   -0.0000 C   0  0  0  0  0  0  0  0  0  0  0  0
   11.6339    3.8029   -0.0000 C   0  0  0  0  0  0  0  0  0  0  0  0
    7.6533    9.1578   -0.0000 C   0  0  0  0  0  0  0  0  0  0  0  0
    9.2645    1.6231   -0.0000 C   0  0  0  0  0  0  0  0  0  0  0  0
   11.6221    2.3102   -0.0000 C   0  0  0  0  0  0  0  0  0  0  0  0
    7.6296   10.6743   -0.0000 O   0  0  0  0  0  0  0  0  0  0  0  0
   10.6269    1.0899   -0.0000 C   0  0  0  0  0  0  0  0  0  0  0  0
  1  2  2  0  0  0  0
  2  3  1  0  0  0  0
  2  4  1  0  0  0  0
  3  5  1  0  0  0  0
  4  6  2  0  0  0  0
  5  7  1  0  0  0  0
  6  8  1  0  0  0  0
  7  9  1  0  0  0  0
  8 10  2  0  0  0  0
  8 11  1  0  0  0  0
  9 12  1  0  0  0  0
 10 13  1  0  0  0  0
 11 14  2  0  0  0  0
 12 15  1  0  0  0  0
 13 16  2  0  0  0  0
 16 17  1  0  0  0  0
 17 18  1  0  0  0  0
 17 19  2  3  0  0  0
 18 20  2  0  0  0  0
 18 21  1  0  0  0  0
 19 22  1  0  0  0  0
 19 23  1  0  0  0  0
 20 24  1  0  0  0  0
 21 25  2  0  0  0  0
 22 26  1  0  0  0  0
 22 27  1  0  0  0  0
 23 28  1  0  0  0  0
 23 29  1  0  0  0  0
 24 30  2  0  0  0  0
 26 31  1  0  0  0  0
 27 32  1  0  0  0  0
 30 33  1  0  0  0  0
 31 34  1  0  0  0  0
 14 16  1  0  0  0  0
 25 30  1  0  0  0  0
 28 31  1  0  0  0  0
 29 32  1  0  0  0  0
 32 34  1  0  0  0  0
M  END
>  <MolRegNo>
2229735

>  <m>
=

>  <Value>
0.45

>  <Unit>
nM

>  <Type>
Ki

>  <pValue>
9.35

>  <Ligand Efficiency>
0.38

>  <Binding Efficiency>
20.38

>  <Surface Efficiency>
14

>  <Assay Index>
1081607

>  <Assay Category>


>  <Assay Organism>
Homo sapiens

>  <Target ID>
19

>  <Target Name>
Estrogen receptor alpha

>  <Target Organism>
Homo sapiens

>  <Target Description>
Target is a single protein chain

>  <Sequence Accession>
P03372

>  <Reference>
J Med Chem 60 (14), 6321-6336 (2017)

>  <Pubmed ID>
28657320

>  <DOI>
10.1021/acs.jmedchem.7b00585

$$$$
2238143
Actelion Java MolfileCreator 1.0

 33 37  0  0  0  0  0  0  0  0999 V2000
    0.0000   -0.0000   -0.0000 O   0  0  0  0  0  0  0  0  0  0  0  0
   -0.0118    1.5166   -0.0000 C   0  0  0  0  0  0  0  0  0  0  0  0
   -1.3270    2.2749   -0.0000 O   0  0  0  0  0  0  0  0  0  0  0  0
    1.2796    2.2749   -0.0000 C   0  0  0  0  0  0  0  0  0  0  0  0
   -2.6422    1.5403   -0.0000 C   0  0  0  0  0  0  0  0  0  0  0  0
    2.5711    1.5403   -0.0000 C   0  0  0  0  0  0  0  0  0  0  0  0
   -3.9574    2.2986   -0.0000 C   0  0  0  0  0  0  0  0  0  0  0  0
    3.8626    2.2986   -0.0000 C   0  0  0  0  0  0  0  0  0  0  0  0
   -5.2726    1.5640   -0.0000 C   0  0  0  0  0  0  0  0  0  0  0  0
    3.8508    3.8152   -0.0000 C   0  0  0  0  0  0  0  0  0  0  0  0
    5.1541    1.5640   -0.0000 C   0  0  0  0  0  0  0  0  0  0  0  0
   -6.5878    2.3223   -0.0000 O   0  0  0  0  0  0  0  0  0  0  0  0
    5.1304    4.5735   -0.0000 C   0  0  0  0  0  0  0  0  0  0  0  0
    6.4456    2.3223   -0.0000 C   0  0  0  0  0  0  0  0  0  0  0  0
    6.4219    3.8389   -0.0000 C   0  0  0  0  0  0  0  0  0  0  0  0
    7.7015    4.6091   -0.0000 C   0  0  0  0  0  0  0  0  0  0  0  0
    7.6897    6.1257   -0.0000 C   0  0  0  0  0  0  0  0  0  0  0  0
    8.9930    3.8745   -0.0000 C   0  0  0  0  0  0  0  0  0  0  0  0
    8.9812    6.8840   -0.0000 C   0  0  0  0  0  0  0  0  0  0  0  0
    6.3745    6.8721   -0.0000 C   0  0  0  0  0  0  0  0  0  0  0  0
    8.9930    2.4289   -0.0000 C   0  0  0  0  0  0  0  0  0  0  0  0
   10.2845    4.3484   -0.0000 C   0  0  0  0  0  0  0  0  0  0  0  0
    8.9693    8.4006   -0.0000 C   0  0  0  0  0  0  0  0  0  0  0  0
    6.3508    8.3769   -0.0000 C   0  0  0  0  0  0  0  0  0  0  0  0
    7.8200    1.2085   -0.0000 C   0  0  0  0  0  0  0  0  0  0  0  0
   10.2726    1.9668   -0.0000 C   0  0  0  0  0  0  0  0  0  0  0  0
    9.2655    3.1635   -0.0000 C   0  0  0  0  0  0  0  0  0  0  0  0
   11.6352    3.8034   -0.0000 C   0  0  0  0  0  0  0  0  0  0  0  0
    7.6541    9.1589   -0.0000 C   0  0  0  0  0  0  0  0  0  0  0  0
    9.2655    1.6232   -0.0000 C   0  0  0  0  0  0  0  0  0  0  0  0
   11.6234    2.3105   -0.0000 C   0  0  0  0  0  0  0  0  0  0  0  0
    7.6304   10.6755   -0.0000 O   0  0  0  0  0  0  0  0  0  0  0  0
   10.6281    1.0901   -0.0000 C   0  0  0  0  0  0  0  0  0  0  0  0
  1  2  2  0  0  0  0
  2  3  1  0  0  0  0
  2  4  1  0  0  0  0
  3  5  1  0  0  0  0
  4  6  2  0  0  0  0
  5  7  1  0  0  0  0
  6  8  1  0  0  0  0
  7  9  1  0  0  0  0
  8 10  2  0  0  0  0
  8 11  1  0  0  0  0
  9 12  1  0  0  0  0
 10 13  1  0  0  0  0
 11 14  2  0  0  0  0
 13 15  2  0  0  0  0
 15 16  1  0  0  0  0
 16 17  1  0  0  0  0
 16 18  2  3  0  0  0
 17 19  2  0  0  0  0
 17 20  1  0  0  0  0
 18 21  1  0  0  0  0
 18 22  1  0  0  0  0
 19 23  1  0  0  0  0
 20 24  2  0  0  0  0
 21 25  1  0  0  0  0
 21 26  1  0  0  0  0
 22 27  1  0  0  0  0
 22 28  1  0  0  0  0
 23 29  2  0  0  0  0
 25 30  1  0  0  0  0
 26 31  1  0  0  0  0
 29 32  1  0  0  0  0
 30 33  1  0  0  0  0
 14 15  1  0  0  0  0
 24 29  1  0  0  0  0
 27 30  1  0  0  0  0
 28 31  1  0  0  0  0
 31 33  1  0  0  0  0
M  END
>  <MolRegNo>
2238143

>  <m>
=

>  <Value>
0.71

>  <Unit>
nM

>  <Type>
Ki

>  <pValue>
9.15

>  <Ligand Efficiency>
0.38

>  <Binding Efficiency>
20.58

>  <Surface Efficiency>
13.7

>  <Assay Index>
1081607

>  <Assay Category>


>  <Assay Organism>
Homo sapiens

>  <Target ID>
19

>  <Target Name>
Estrogen receptor alpha

>  <Target Organism>
Homo sapiens

>  <Target Description>
Target is a single protein chain

>  <Sequence Accession>
P03372

>  <Reference>
J Med Chem 60 (14), 6321-6336 (2017)

>  <Pubmed ID>
28657320

>  <DOI>
10.1021/acs.jmedchem.7b00585

$$$$
2219555
Actelion Java MolfileCreator 1.0

 32 36  0  0  0  0  0  0  0  0999 V2000
    0.0000   -0.0000   -0.0000 O   0  0  0  0  0  0  0  0  0  0  0  0
   -0.0119    1.5171   -0.0000 C   0  0  0  0  0  0  0  0  0  0  0  0
   -1.3275    2.2757   -0.0000 O   0  0  0  0  0  0  0  0  0  0  0  0
    1.2801    2.2757   -0.0000 C   0  0  0  0  0  0  0  0  0  0  0  0
   -2.6431    1.5408   -0.0000 C   0  0  0  0  0  0  0  0  0  0  0  0
    2.5720    1.5408   -0.0000 C   0  0  0  0  0  0  0  0  0  0  0  0
   -3.9587    2.2994   -0.0000 C   0  0  0  0  0  0  0  0  0  0  0  0
    3.8639    2.2994   -0.0000 C   0  0  0  0  0  0  0  0  0  0  0  0
   -5.2743    1.5645   -0.0000 O   0  0  0  0  0  0  0  0  0  0  0  0
    3.8521    3.8165   -0.0000 C   0  0  0  0  0  0  0  0  0  0  0  0
    5.1558    1.5645   -0.0000 C   0  0  0  0  0  0  0  0  0  0  0  0
    5.1321    4.5751   -0.0000 C   0  0  0  0  0  0  0  0  0  0  0  0
    6.4477    2.3231   -0.0000 C   0  0  0  0  0  0  0  0  0  0  0  0
    6.4240    3.8402   -0.0000 C   0  0  0  0  0  0  0  0  0  0  0  0
    7.7041    4.6106   -0.0000 C   0  0  0  0  0  0  0  0  0  0  0  0
    7.6923    6.1277   -0.0000 C   0  0  0  0  0  0  0  0  0  0  0  0
    8.9960    3.8758   -0.0000 C   0  0  0  0  0  0  0  0  0  0  0  0
    8.9842    6.8863   -0.0000 C   0  0  0  0  0  0  0  0  0  0  0  0
    6.3766    6.8744   -0.0000 C   0  0  0  0  0  0  0  0  0  0  0  0
    8.9960    2.4298   -0.0000 C   0  0  0  0  0  0  0  0  0  0  0  0
   10.2879    4.3499   -0.0000 C   0  0  0  0  0  0  0  0  0  0  0  0
    8.9723    8.4034   -0.0000 C   0  0  0  0  0  0  0  0  0  0  0  0
    6.3529    8.3797   -0.0000 C   0  0  0  0  0  0  0  0  0  0  0  0
    7.8226    1.2090   -0.0000 C   0  0  0  0  0  0  0  0  0  0  0  0
   10.2761    1.9675   -0.0000 C   0  0  0  0  0  0  0  0  0  0  0  0
    9.2686    3.1646   -0.0000 C   0  0  0  0  0  0  0  0  0  0  0  0
   11.6391    3.8046   -0.0000 C   0  0  0  0  0  0  0  0  0  0  0  0
    7.6567    9.1620   -0.0000 C   0  0  0  0  0  0  0  0  0  0  0  0
    9.2686    1.6238   -0.0000 C   0  0  0  0  0  0  0  0  0  0  0  0
   11.6273    2.3112   -0.0000 C   0  0  0  0  0  0  0  0  0  0  0  0
    7.6330   10.6791   -0.0000 O   0  0  0  0  0  0  0  0  0  0  0  0
   10.6317    1.0904   -0.0000 C   0  0  0  0  0  0  0  0  0  0  0  0
  1  2  2  0  0  0  0
  2  3  1  0  0  0  0
  2  4  1  0  0  0  0
  3  5  1  0  0  0  0
  4  6  2  0  0  0  0
  5  7  1  0  0  0  0
  6  8  1  0  0  0  0
  7  9  1  0  0  0  0
  8 10  2  0  0  0  0
  8 11  1  0  0  0  0
 10 12  1  0  0  0  0
 11 13  2  0  0  0  0
 12 14  2  0  0  0  0
 14 15  1  0  0  0  0
 15 16  1  0  0  0  0
 15 17  2  3  0  0  0
 16 18  2  0  0  0  0
 16 19  1  0  0  0  0
 17 20  1  0  0  0  0
 17 21  1  0  0  0  0
 18 22  1  0  0  0  0
 19 23  2  0  0  0  0
 20 24  1  0  0  0  0
 20 25  1  0  0  0  0
 21 26  1  0  0  0  0
 21 27  1  0  0  0  0
 22 28  2  0  0  0  0
 24 29  1  0  0  0  0
 25 30  1  0  0  0  0
 28 31  1  0  0  0  0
 29 32  1  0  0  0  0
 13 14  1  0  0  0  0
 23 28  1  0  0  0  0
 26 29  1  0  0  0  0
 27 30  1  0  0  0  0
 30 32  1  0  0  0  0
M  END
>  <MolRegNo>
2219555

>  <m>
=

>  <Value>
0.37

>  <Unit>
nM

>  <Type>
Ki

>  <pValue>
9.43

>  <Ligand Efficiency>
0.4

>  <Binding Efficiency>
21.91

>  <Surface Efficiency>
14.13

>  <Assay Index>
1081607

>  <Assay Category>


>  <Assay Organism>
Homo sapiens

>  <Target ID>
19

>  <Target Name>
Estrogen receptor alpha

>  <Target Organism>
Homo sapiens

>  <Target Description>
Target is a single protein chain

>  <Sequence Accession>
P03372

>  <Reference>
J Med Chem 60 (14), 6321-6336 (2017)

>  <Pubmed ID>
28657320

>  <DOI>
10.1021/acs.jmedchem.7b00585

$$$$
2212116
Actelion Java MolfileCreator 1.0

 37 41  0  0  0  0  0  0  0  0999 V2000
    0.0000   -0.0000   -0.0000 O   0  0  0  0  0  0  0  0  0  0  0  0
   -0.0118    1.5154   -0.0000 C   0  0  0  0  0  0  0  0  0  0  0  0
   -1.3260    2.2731   -0.0000 O   0  0  0  0  0  0  0  0  0  0  0  0
    1.2786    2.2731   -0.0000 C   0  0  0  0  0  0  0  0  0  0  0  0
   -2.6402    1.5391   -0.0000 C   0  0  0  0  0  0  0  0  0  0  0  0
    2.5691    1.5391   -0.0000 C   0  0  0  0  0  0  0  0  0  0  0  0
   -3.9543    2.2968   -0.0000 C   0  0  0  0  0  0  0  0  0  0  0  0
    3.8596    2.2968   -0.0000 C   0  0  0  0  0  0  0  0  0  0  0  0
   -5.2685    1.5628   -0.0000 C   0  0  0  0  0  0  0  0  0  0  0  0
    3.8478    3.8123   -0.0000 C   0  0  0  0  0  0  0  0  0  0  0  0
    5.1501    1.5628   -0.0000 C   0  0  0  0  0  0  0  0  0  0  0  0
   -6.5827    2.3205   -0.0000 C   0  0  0  0  0  0  0  0  0  0  0  0
    5.1264    4.5700   -0.0000 C   0  0  0  0  0  0  0  0  0  0  0  0
    6.4406    2.3205   -0.0000 C   0  0  0  0  0  0  0  0  0  0  0  0
   -7.8968    1.5865   -0.0000 C   0  0  0  0  0  0  0  0  0  0  0  0
    6.4169    3.8359   -0.0000 C   0  0  0  0  0  0  0  0  0  0  0  0
   -9.2110    2.3442   -0.0000 C   0  0  0  0  0  0  0  0  0  0  0  0
    7.6956    4.6055   -0.0000 C   0  0  0  0  0  0  0  0  0  0  0  0
  -10.5252    1.6101   -0.0000 C   0  0  0  0  0  0  0  0  0  0  0  0
   -9.2228    3.8596   -0.0000 C   0  0  0  0  0  0  0  0  0  0  0  0
    7.6837    6.1209   -0.0000 C   0  0  0  0  0  0  0  0  0  0  0  0
    8.9860    3.8715   -0.0000 C   0  0  0  0  0  0  0  0  0  0  0  0
    8.9742    6.8786   -0.0000 C   0  0  0  0  0  0  0  0  0  0  0  0
    6.3696    6.8668   -0.0000 C   0  0  0  0  0  0  0  0  0  0  0  0
    8.9860    2.4271   -0.0000 C   0  0  0  0  0  0  0  0  0  0  0  0
   10.2765    4.3450   -0.0000 C   0  0  0  0  0  0  0  0  0  0  0  0
    8.9624    8.3941   -0.0000 C   0  0  0  0  0  0  0  0  0  0  0  0
    6.3459    8.3704   -0.0000 C   0  0  0  0  0  0  0  0  0  0  0  0
    7.8139    1.2076   -0.0000 C   0  0  0  0  0  0  0  0  0  0  0  0
   10.2647    1.9653   -0.0000 C   0  0  0  0  0  0  0  0  0  0  0  0
    9.2583    3.1611   -0.0000 C   0  0  0  0  0  0  0  0  0  0  0  0
   11.6262    3.8004   -0.0000 C   0  0  0  0  0  0  0  0  0  0  0  0
    7.6482    9.1518   -0.0000 C   0  0  0  0  0  0  0  0  0  0  0  0
    9.2583    1.6220   -0.0000 C   0  0  0  0  0  0  0  0  0  0  0  0
   11.6144    2.3087   -0.0000 C   0  0  0  0  0  0  0  0  0  0  0  0
    7.6245   10.6672   -0.0000 O   0  0  0  0  0  0  0  0  0  0  0  0
   10.6199    1.0892   -0.0000 C   0  0  0  0  0  0  0  0  0  0  0  0
  1  2  2  0  0  0  0
  2  3  1  0  0  0  0
  2  4  1  0  0  0  0
  3  5  1  0  0  0  0
  4  6  2  0  0  0  0
  5  7  1  0  0  0  0
  6  8  1  0  0  0  0
  7  9  1  0  0  0  0
  8 10  2  0  0  0  0
  8 11  1  0  0  0  0
  9 12  1  0  0  0  0
 10 13  1  0  0  0  0
 11 14  2  0  0  0  0
 12 15  1  0  0  0  0
 13 16  2  0  0  0  0
 15 17  1  0  0  0  0
 16 18  1  0  0  0  0
 17 19  1  0  0  0  0
 17 20  1  0  0  0  0
 18 21  1  0  0  0  0
 18 22  2  3  0  0  0
 21 23  2  0  0  0  0
 21 24  1  0  0  0  0
 22 25  1  0  0  0  0
 22 26  1  0  0  0  0
 23 27  1  0  0  0  0
 24 28  2  0  0  0  0
 25 29  1  0  0  0  0
 25 30  1  0  0  0  0
 26 31  1  0  0  0  0
 26 32  1  0  0  0  0
 27 33  2  0  0  0  0
 29 34  1  0  0  0  0
 30 35  1  0  0  0  0
 33 36  1  0  0  0  0
 34 37  1  0  0  0  0
 14 16  1  0  0  0  0
 28 33  1  0  0  0  0
 31 34  1  0  0  0  0
 32 35  1  0  0  0  0
 35 37  1  0  0  0  0
M  END
>  <MolRegNo>
2212116

>  <m>
=

>  <Value>
7.1

>  <Unit>
nM

>  <Type>
Ki

>  <pValue>
8.15

>  <Ligand Efficiency>
0.3

>  <Binding Efficiency>
16.34

>  <Surface Efficiency>
17.51

>  <Assay Index>
1081607

>  <Assay Category>


>  <Assay Organism>
Homo sapiens

>  <Target ID>
19

>  <Target Name>
Estrogen receptor alpha

>  <Target Organism>
Homo sapiens

>  <Target Description>
Target is a single protein chain

>  <Sequence Accession>
P03372

>  <Reference>
J Med Chem 60 (14), 6321-6336 (2017)

>  <Pubmed ID>
28657320

>  <DOI>
10.1021/acs.jmedchem.7b00585

$$$$
2239077
Actelion Java MolfileCreator 1.0

 33 37  0  0  0  0  0  0  0  0999 V2000
    0.0000   -0.0000   -0.0000 O   0  0  0  0  0  0  0  0  0  0  0  0
   -0.0118    1.5166   -0.0000 C   0  0  0  0  0  0  0  0  0  0  0  0
   -1.3270    2.2749   -0.0000 O   0  0  0  0  0  0  0  0  0  0  0  0
    1.2796    2.2749   -0.0000 C   0  0  0  0  0  0  0  0  0  0  0  0
   -2.6422    1.5403   -0.0000 C   0  0  0  0  0  0  0  0  0  0  0  0
    2.5711    1.5403   -0.0000 C   0  0  0  0  0  0  0  0  0  0  0  0
   -3.9574    2.2986   -0.0000 C   0  0  0  0  0  0  0  0  0  0  0  0
    3.8626    2.2986   -0.0000 C   0  0  0  0  0  0  0  0  0  0  0  0
   -5.2726    1.5640   -0.0000 C   0  0  0  0  0  0  0  0  0  0  0  0
    3.8508    3.8152   -0.0000 C   0  0  0  0  0  0  0  0  0  0  0  0
    5.1541    1.5640   -0.0000 C   0  0  0  0  0  0  0  0  0  0  0  0
   -6.5878    2.3223   -0.0000 C   0  0  0  0  0  0  0  0  0  0  0  0
    5.1304    4.5735   -0.0000 C   0  0  0  0  0  0  0  0  0  0  0  0
    6.4456    2.3223   -0.0000 C   0  0  0  0  0  0  0  0  0  0  0  0
    6.4219    3.8389   -0.0000 C   0  0  0  0  0  0  0  0  0  0  0  0
    7.7015    4.6091   -0.0000 C   0  0  0  0  0  0  0  0  0  0  0  0
    7.6897    6.1257   -0.0000 C   0  0  0  0  0  0  0  0  0  0  0  0
    8.9930    3.8745   -0.0000 C   0  0  0  0  0  0  0  0  0  0  0  0
    8.9812    6.8840   -0.0000 C   0  0  0  0  0  0  0  0  0  0  0  0
    6.3745    6.8721   -0.0000 C   0  0  0  0  0  0  0  0  0  0  0  0
    8.9930    2.4289   -0.0000 C   0  0  0  0  0  0  0  0  0  0  0  0
   10.2845    4.3484   -0.0000 C   0  0  0  0  0  0  0  0  0  0  0  0
    8.9693    8.4006   -0.0000 C   0  0  0  0  0  0  0  0  0  0  0  0
    6.3508    8.3769   -0.0000 C   0  0  0  0  0  0  0  0  0  0  0  0
    7.8200    1.2085   -0.0000 C   0  0  0  0  0  0  0  0  0  0  0  0
   10.2726    1.9668   -0.0000 C   0  0  0  0  0  0  0  0  0  0  0  0
    9.2655    3.1635   -0.0000 C   0  0  0  0  0  0  0  0  0  0  0  0
   11.6352    3.8034   -0.0000 C   0  0  0  0  0  0  0  0  0  0  0  0
    7.6541    9.1589   -0.0000 C   0  0  0  0  0  0  0  0  0  0  0  0
    9.2655    1.6232   -0.0000 C   0  0  0  0  0  0  0  0  0  0  0  0
   11.6234    2.3105   -0.0000 C   0  0  0  0  0  0  0  0  0  0  0  0
    7.6304   10.6755   -0.0000 O   0  0  0  0  0  0  0  0  0  0  0  0
   10.6281    1.0901   -0.0000 C   0  0  0  0  0  0  0  0  0  0  0  0
  1  2  2  0  0  0  0
  2  3  1  0  0  0  0
  2  4  1  0  0  0  0
  3  5  1  0  0  0  0
  4  6  2  0  0  0  0
  5  7  1  0  0  0  0
  6  8  1  0  0  0  0
  7  9  1  0  0  0  0
  8 10  2  0  0  0  0
  8 11  1  0  0  0  0
  9 12  1  0  0  0  0
 10 13  1  0  0  0  0
 11 14  2  0  0  0  0
 13 15  2  0  0  0  0
 15 16  1  0  0  0  0
 16 17  1  0  0  0  0
 16 18  2  3  0  0  0
 17 19  2  0  0  0  0
 17 20  1  0  0  0  0
 18 21  1  0  0  0  0
 18 22  1  0  0  0  0
 19 23  1  0  0  0  0
 20 24  2  0  0  0  0
 21 25  1  0  0  0  0
 21 26  1  0  0  0  0
 22 27  1  0  0  0  0
 22 28  1  0  0  0  0
 23 29  2  0  0  0  0
 25 30  1  0  0  0  0
 26 31  1  0  0  0  0
 29 32  1  0  0  0  0
 30 33  1  0  0  0  0
 14 15  1  0  0  0  0
 24 29  1  0  0  0  0
 27 30  1  0  0  0  0
 28 31  1  0  0  0  0
 31 33  1  0  0  0  0
M  END
>  <MolRegNo>
2239077

>  <m>
=

>  <Value>
1.8

>  <Unit>
nM

>  <Type>
Ki

>  <pValue>
8.74

>  <Ligand Efficiency>
0.36

>  <Binding Efficiency>
19.76

>  <Surface Efficiency>
18.79

>  <Assay Index>
1081607

>  <Assay Category>


>  <Assay Organism>
Homo sapiens

>  <Target ID>
19

>  <Target Name>
Estrogen receptor alpha

>  <Target Organism>
Homo sapiens

>  <Target Description>
Target is a single protein chain

>  <Sequence Accession>
P03372

>  <Reference>
J Med Chem 60 (14), 6321-6336 (2017)

>  <Pubmed ID>
28657320

>  <DOI>
10.1021/acs.jmedchem.7b00585

$$$$
2222609
Actelion Java MolfileCreator 1.0

 31 35  0  0  0  0  0  0  0  0999 V2000
    0.0000   -0.0000   -0.0000 O   0  0  0  0  0  0  0  0  0  0  0  0
   -0.0119    1.5173   -0.0000 C   0  0  0  0  0  0  0  0  0  0  0  0
   -1.3277    2.2760   -0.0000 O   0  0  0  0  0  0  0  0  0  0  0  0
    1.2802    2.2760   -0.0000 C   0  0  0  0  0  0  0  0  0  0  0  0
   -2.6435    1.5410   -0.0000 C   0  0  0  0  0  0  0  0  0  0  0  0
    2.5723    1.5410   -0.0000 C   0  0  0  0  0  0  0  0  0  0  0  0
   -3.9592    2.2997   -0.0000 C   0  0  0  0  0  0  0  0  0  0  0  0
    3.8644    2.2997   -0.0000 C   0  0  0  0  0  0  0  0  0  0  0  0
    3.8526    3.8170   -0.0000 C   0  0  0  0  0  0  0  0  0  0  0  0
    5.1565    1.5647   -0.0000 C   0  0  0  0  0  0  0  0  0  0  0  0
    5.1328    4.5757   -0.0000 C   0  0  0  0  0  0  0  0  0  0  0  0
    6.4486    2.3234   -0.0000 C   0  0  0  0  0  0  0  0  0  0  0  0
    6.4249    3.8407   -0.0000 C   0  0  0  0  0  0  0  0  0  0  0  0
    7.7051    4.6112   -0.0000 C   0  0  0  0  0  0  0  0  0  0  0  0
    7.6933    6.1285   -0.0000 C   0  0  0  0  0  0  0  0  0  0  0  0
    8.9972    3.8763   -0.0000 C   0  0  0  0  0  0  0  0  0  0  0  0
    8.9854    6.8872   -0.0000 C   0  0  0  0  0  0  0  0  0  0  0  0
    6.3775    6.8753   -0.0000 C   0  0  0  0  0  0  0  0  0  0  0  0
    8.9972    2.4301   -0.0000 C   0  0  0  0  0  0  0  0  0  0  0  0
   10.2893    4.3504   -0.0000 C   0  0  0  0  0  0  0  0  0  0  0  0
    8.9735    8.4045   -0.0000 C   0  0  0  0  0  0  0  0  0  0  0  0
    6.3538    8.3808   -0.0000 C   0  0  0  0  0  0  0  0  0  0  0  0
    7.8237    1.2091   -0.0000 C   0  0  0  0  0  0  0  0  0  0  0  0
   10.2774    1.9678   -0.0000 C   0  0  0  0  0  0  0  0  0  0  0  0
    9.2699    3.1650   -0.0000 C   0  0  0  0  0  0  0  0  0  0  0  0
   11.6407    3.8051   -0.0000 C   0  0  0  0  0  0  0  0  0  0  0  0
    7.6577    9.1632   -0.0000 C   0  0  0  0  0  0  0  0  0  0  0  0
    9.2699    1.6240   -0.0000 C   0  0  0  0  0  0  0  0  0  0  0  0
   11.6288    2.3115   -0.0000 C   0  0  0  0  0  0  0  0  0  0  0  0
    7.6340   10.6805   -0.0000 O   0  0  0  0  0  0  0  0  0  0  0  0
   10.6331    1.0906   -0.0000 C   0  0  0  0  0  0  0  0  0  0  0  0
  1  2  2  0  0  0  0
  2  3  1  0  0  0  0
  2  4  1  0  0  0  0
  3  5  1  0  0  0  0
  4  6  2  0  0  0  0
  5  7  1  0  0  0  0
  6  8  1  0  0  0  0
  8  9  2  0  0  0  0
  8 10  1  0  0  0  0
  9 11  1  0  0  0  0
 10 12  2  0  0  0  0
 11 13  2  0  0  0  0
 13 14  1  0  0  0  0
 14 15  1  0  0  0  0
 14 16  2  3  0  0  0
 15 17  2  0  0  0  0
 15 18  1  0  0  0  0
 16 19  1  0  0  0  0
 16 20  1  0  0  0  0
 17 21  1  0  0  0  0
 18 22  2  0  0  0  0
 19 23  1  0  0  0  0
 19 24  1  0  0  0  0
 20 25  1  0  0  0  0
 20 26  1  0  0  0  0
 21 27  2  0  0  0  0
 23 28  1  0  0  0  0
 24 29  1  0  0  0  0
 27 30  1  0  0  0  0
 28 31  1  0  0  0  0
 12 13  1  0  0  0  0
 22 27  1  0  0  0  0
 25 28  1  0  0  0  0
 26 29  1  0  0  0  0
 29 31  1  0  0  0  0
M  END
>  <MolRegNo>
2222609

>  <m>
=

>  <Value>
3.3

>  <Unit>
nM

>  <Type>
Ki

>  <pValue>
8.48

>  <Ligand Efficiency>
0.37

>  <Binding Efficiency>
20.46

>  <Surface Efficiency>
18.23

>  <Assay Index>
1081607

>  <Assay Category>


>  <Assay Organism>
Homo sapiens

>  <Target ID>
19

>  <Target Name>
Estrogen receptor alpha

>  <Target Organism>
Homo sapiens

>  <Target Description>
Target is a single protein chain

>  <Sequence Accession>
P03372

>  <Reference>
J Med Chem 60 (14), 6321-6336 (2017)

>  <Pubmed ID>
28657320

>  <DOI>
10.1021/acs.jmedchem.7b00585

$$$$
2200728
Actelion Java MolfileCreator 1.0

 30 34  0  0  0  0  0  0  0  0999 V2000
    0.0000   -0.0000   -0.0000 O   0  0  0  0  0  0  0  0  0  0  0  0
   -0.0119    1.5179   -0.0000 C   0  0  0  0  0  0  0  0  0  0  0  0
   -1.3281    2.2768   -0.0000 O   0  0  0  0  0  0  0  0  0  0  0  0
    1.2807    2.2768   -0.0000 C   0  0  0  0  0  0  0  0  0  0  0  0
   -2.6444    1.5416   -0.0000 C   0  0  0  0  0  0  0  0  0  0  0  0
    2.5733    1.5416   -0.0000 C   0  0  0  0  0  0  0  0  0  0  0  0
    3.8658    2.3005   -0.0000 C   0  0  0  0  0  0  0  0  0  0  0  0
    3.8540    3.8184   -0.0000 C   0  0  0  0  0  0  0  0  0  0  0  0
    5.1584    1.5653   -0.0000 C   0  0  0  0  0  0  0  0  0  0  0  0
    5.1347    4.5773   -0.0000 C   0  0  0  0  0  0  0  0  0  0  0  0
    6.4510    2.3242   -0.0000 C   0  0  0  0  0  0  0  0  0  0  0  0
    6.4273    3.8421   -0.0000 C   0  0  0  0  0  0  0  0  0  0  0  0
    7.7080    4.6129   -0.0000 C   0  0  0  0  0  0  0  0  0  0  0  0
    7.6961    6.1308   -0.0000 C   0  0  0  0  0  0  0  0  0  0  0  0
    9.0005    3.8777   -0.0000 C   0  0  0  0  0  0  0  0  0  0  0  0
    8.9887    6.8897   -0.0000 C   0  0  0  0  0  0  0  0  0  0  0  0
    6.3798    6.8779   -0.0000 C   0  0  0  0  0  0  0  0  0  0  0  0
    9.0005    2.4310   -0.0000 C   0  0  0  0  0  0  0  0  0  0  0  0
   10.2931    4.3520   -0.0000 C   0  0  0  0  0  0  0  0  0  0  0  0
    8.9768    8.4076   -0.0000 C   0  0  0  0  0  0  0  0  0  0  0  0
    6.3561    8.3839   -0.0000 C   0  0  0  0  0  0  0  0  0  0  0  0
    7.8266    1.2096   -0.0000 C   0  0  0  0  0  0  0  0  0  0  0  0
   10.2812    1.9685   -0.0000 C   0  0  0  0  0  0  0  0  0  0  0  0
    9.2733    3.1662   -0.0000 C   0  0  0  0  0  0  0  0  0  0  0  0
   11.6450    3.8066   -0.0000 C   0  0  0  0  0  0  0  0  0  0  0  0
    7.6605    9.1666   -0.0000 C   0  0  0  0  0  0  0  0  0  0  0  0
    9.2733    1.6246   -0.0000 C   0  0  0  0  0  0  0  0  0  0  0  0
   11.6331    2.3124   -0.0000 C   0  0  0  0  0  0  0  0  0  0  0  0
    7.6368   10.6844   -0.0000 O   0  0  0  0  0  0  0  0  0  0  0  0
   10.6370    1.0910   -0.0000 C   0  0  0  0  0  0  0  0  0  0  0  0
  1  2  2  0  0  0  0
  2  3  1  0  0  0  0
  2  4  1  0  0  0  0
  3  5  1  0  0  0  0
  4  6  2  0  0  0  0
  6  7  1  0  0  0  0
  7  8  2  0  0  0  0
  7  9  1  0  0  0  0
  8 10  1  0  0  0  0
  9 11  2  0  0  0  0
 10 12  2  0  0  0  0
 12 13  1  0  0  0  0
 13 14  1  0  0  0  0
 13 15  2  3  0  0  0
 14 16  2  0  0  0  0
 14 17  1  0  0  0  0
 15 18  1  0  0  0  0
 15 19  1  0  0  0  0
 16 20  1  0  0  0  0
 17 21  2  0  0  0  0
 18 22  1  0  0  0  0
 18 23  1  0  0  0  0
 19 24  1  0  0  0  0
 19 25  1  0  0  0  0
 20 26  2  0  0  0  0
 22 27  1  0  0  0  0
 23 28  1  0  0  0  0
 26 29  1  0  0  0  0
 27 30  1  0  0  0  0
 11 12  1  0  0  0  0
 21 26  1  0  0  0  0
 24 27  1  0  0  0  0
 25 28  1  0  0  0  0
 28 30  1  0  0  0  0
M  END
>  <MolRegNo>
2200728

>  <m>
=

>  <Value>
0.43

>  <Unit>
nM

>  <Type>
Ki

>  <pValue>
9.37

>  <Ligand Efficiency>
0.43

>  <Binding Efficiency>
23.39

>  <Surface Efficiency>
20.13

>  <Assay Index>
1081607

>  <Assay Category>


>  <Assay Organism>
Homo sapiens

>  <Target ID>
19

>  <Target Name>
Estrogen receptor alpha

>  <Target Organism>
Homo sapiens

>  <Target Description>
Target is a single protein chain

>  <Sequence Accession>
P03372

>  <Reference>
J Med Chem 60 (14), 6321-6336 (2017)

>  <Pubmed ID>
28657320

>  <DOI>
10.1021/acs.jmedchem.7b00585

$$$$
2241567
Actelion Java MolfileCreator 1.0

 33 37  0  0  0  0  0  0  0  0999 V2000
    0.0000   -0.0000   -0.0000 O   0  0  0  0  0  0  0  0  0  0  0  0
   -0.0118    1.5166   -0.0000 C   0  0  0  0  0  0  0  0  0  0  0  0
    1.2796    2.2749   -0.0000 C   0  0  0  0  0  0  0  0  0  0  0  0
   -1.3270    2.2749   -0.0000 C   0  0  0  0  0  0  0  0  0  0  0  0
    2.5711    1.5403   -0.0000 C   0  0  0  0  0  0  0  0  0  0  0  0
   -2.6422    1.5403   -0.0000 C   0  0  0  0  0  0  0  0  0  0  0  0
    3.8626    2.2986   -0.0000 C   0  0  0  0  0  0  0  0  0  0  0  0
   -3.9574    2.2986   -0.0000 C   0  0  0  0  0  0  0  0  0  0  0  0
    3.8508    3.8152   -0.0000 C   0  0  0  0  0  0  0  0  0  0  0  0
    5.1541    1.5640   -0.0000 C   0  0  0  0  0  0  0  0  0  0  0  0
   -5.2726    1.5640   -0.0000 C   0  0  0  0  0  0  0  0  0  0  0  0
    5.1304    4.5735   -0.0000 C   0  0  0  0  0  0  0  0  0  0  0  0
    6.4456    2.3223   -0.0000 C   0  0  0  0  0  0  0  0  0  0  0  0
   -6.5878    2.3223   -0.0000 C   0  0  0  0  0  0  0  0  0  0  0  0
    6.4219    3.8389   -0.0000 C   0  0  0  0  0  0  0  0  0  0  0  0
    7.7015    4.6091   -0.0000 C   0  0  0  0  0  0  0  0  0  0  0  0
    7.6897    6.1257   -0.0000 C   0  0  0  0  0  0  0  0  0  0  0  0
    8.9930    3.8745   -0.0000 C   0  0  0  0  0  0  0  0  0  0  0  0
    8.9812    6.8840   -0.0000 C   0  0  0  0  0  0  0  0  0  0  0  0
    6.3745    6.8721   -0.0000 C   0  0  0  0  0  0  0  0  0  0  0  0
    8.9930    2.4289   -0.0000 C   0  0  0  0  0  0  0  0  0  0  0  0
   10.2845    4.3484   -0.0000 C   0  0  0  0  0  0  0  0  0  0  0  0
    8.9693    8.4006   -0.0000 C   0  0  0  0  0  0  0  0  0  0  0  0
    6.3508    8.3769   -0.0000 C   0  0  0  0  0  0  0  0  0  0  0  0
    7.8200    1.2085   -0.0000 C   0  0  0  0  0  0  0  0  0  0  0  0
   10.2726    1.9668   -0.0000 C   0  0  0  0  0  0  0  0  0  0  0  0
    9.2655    3.1635   -0.0000 C   0  0  0  0  0  0  0  0  0  0  0  0
   11.6352    3.8034   -0.0000 C   0  0  0  0  0  0  0  0  0  0  0  0
    7.6541    9.1589   -0.0000 C   0  0  0  0  0  0  0  0  0  0  0  0
    9.2655    1.6232   -0.0000 C   0  0  0  0  0  0  0  0  0  0  0  0
   11.6234    2.3105   -0.0000 C   0  0  0  0  0  0  0  0  0  0  0  0
    7.6304   10.6755   -0.0000 O   0  0  0  0  0  0  0  0  0  0  0  0
   10.6281    1.0901   -0.0000 C   0  0  0  0  0  0  0  0  0  0  0  0
  1  2  2  0  0  0  0
  2  3  1  0  0  0  0
  2  4  1  0  0  0  0
  3  5  2  0  0  0  0
  4  6  1  0  0  0  0
  5  7  1  0  0  0  0
  6  8  1  0  0  0  0
  7  9  2  0  0  0  0
  7 10  1  0  0  0  0
  8 11  1  0  0  0  0
  9 12  1  0  0  0  0
 10 13  2  0  0  0  0
 11 14  1  0  0  0  0
 12 15  2  0  0  0  0
 15 16  1  0  0  0  0
 16 17  1  0  0  0  0
 16 18  2  3  0  0  0
 17 19  2  0  0  0  0
 17 20  1  0  0  0  0
 18 21  1  0  0  0  0
 18 22  1  0  0  0  0
 19 23  1  0  0  0  0
 20 24  2  0  0  0  0
 21 25  1  0  0  0  0
 21 26  1  0  0  0  0
 22 27  1  0  0  0  0
 22 28  1  0  0  0  0
 23 29  2  0  0  0  0
 25 30  1  0  0  0  0
 26 31  1  0  0  0  0
 29 32  1  0  0  0  0
 30 33  1  0  0  0  0
 13 15  1  0  0  0  0
 24 29  1  0  0  0  0
 27 30  1  0  0  0  0
 28 31  1  0  0  0  0
 31 33  1  0  0  0  0
M  END
>  <MolRegNo>
2241567

>  <m>
=

>  <Value>
1.7

>  <Unit>
nM

>  <Type>
Ki

>  <pValue>
8.77

>  <Ligand Efficiency>
0.36

>  <Binding Efficiency>
19.9

>  <Surface Efficiency>
23.51

>  <Assay Index>
1081607

>  <Assay Category>


>  <Assay Organism>
Homo sapiens

>  <Target ID>
19

>  <Target Name>
Estrogen receptor alpha

>  <Target Organism>
Homo sapiens

>  <Target Description>
Target is a single protein chain

>  <Sequence Accession>
P03372

>  <Reference>
J Med Chem 60 (14), 6321-6336 (2017)

>  <Pubmed ID>
28657320

>  <DOI>
10.1021/acs.jmedchem.7b00585

$$$$
622275
Actelion Java MolfileCreator 1.0

 28 30  0  0  0  0  0  0  0  0999 V2000
    0.0000   -0.0000   -0.0000 O   0  0  0  0  0  0  0  0  0  0  0  0
    1.2891   -0.7400   -0.0000 C   0  0  0  0  0  0  0  0  0  0  0  0
    2.5782    0.0358   -0.0000 O   0  0  0  0  0  0  0  0  0  0  0  0
    1.2772   -2.2320   -0.0000 C   0  0  0  0  0  0  0  0  0  0  0  0
   -0.0358   -2.9721   -0.0000 C   0  0  0  0  0  0  0  0  0  0  0  0
   -0.0477   -4.4641   -0.0000 C   0  0  0  0  0  0  0  0  0  0  0  0
   -1.3607   -5.2041   -0.0000 C   0  0  0  0  0  0  0  0  0  0  0  0
    1.2414   -5.2041   -0.0000 C   0  0  0  0  0  0  0  0  0  0  0  0
   -1.3726   -6.7081   -0.0000 C   0  0  0  0  0  0  0  0  0  0  0  0
    1.2294   -6.7081   -0.0000 C   0  0  0  0  0  0  0  0  0  0  0  0
   -0.0836   -7.4481   -0.0000 C   0  0  0  0  0  0  0  0  0  0  0  0
   -0.0955   -8.9401   -0.0000 C   0  0  0  0  0  0  0  0  0  0  0  0
   -1.4085   -9.6801   -0.0000 C   0  0  0  0  0  0  0  0  0  0  0  0
    1.1936   -9.6801   -0.0000 C   0  0  0  0  0  0  0  0  0  0  0  0
   -2.7214   -8.9043   -0.0000 C   0  0  0  0  0  0  0  0  0  0  0  0
   -1.4085  -11.1602   -0.0000 C   0  0  0  0  0  0  0  0  0  0  0  0
    2.4827   -8.9162   -0.0000 C   0  0  0  0  0  0  0  0  0  0  0  0
    1.1817  -11.1722   -0.0000 C   0  0  0  0  0  0  0  0  0  0  0  0
   -4.0344   -9.6443   -0.0000 C   0  0  0  0  0  0  0  0  0  0  0  0
   -2.7214  -11.9003   -0.0000 C   0  0  0  0  0  0  0  0  0  0  0  0
    3.7718   -9.6563   -0.0000 C   0  0  0  0  0  0  0  0  0  0  0  0
    2.4588   -7.4004   -0.0000 C   0  0  0  0  0  0  0  0  0  0  0  0
    2.4708  -11.9122   -0.0000 C   0  0  0  0  0  0  0  0  0  0  0  0
   -4.0463  -11.1363   -0.0000 C   0  0  0  0  0  0  0  0  0  0  0  0
    5.0609   -8.8924   -0.0000 C   0  0  0  0  0  0  0  0  0  0  0  0
    3.7479   -6.6365   -0.0000 C   0  0  0  0  0  0  0  0  0  0  0  0
   -5.3593  -11.8764   -0.0000 O   0  0  0  0  0  0  0  0  0  0  0  0
    5.0490   -7.3765   -0.0000 C   0  0  0  0  0  0  0  0  0  0  0  0
  1  2  2  0  0  0  0
  2  3  1  0  0  0  0
  2  4  1  0  0  0  0
  4  5  2  0  0  0  0
  5  6  1  0  0  0  0
  6  7  2  0  0  0  0
  6  8  1  0  0  0  0
  7  9  1  0  0  0  0
  8 10  2  0  0  0  0
  9 11  2  0  0  0  0
 11 12  1  0  0  0  0
 12 13  1  0  0  0  0
 12 14  2  3  0  0  0
 13 15  2  0  0  0  0
 13 16  1  0  0  0  0
 14 17  1  0  0  0  0
 14 18  1  0  0  0  0
 15 19  1  0  0  0  0
 16 20  2  0  0  0  0
 17 21  2  0  0  0  0
 17 22  1  0  0  0  0
 18 23  1  0  0  0  0
 19 24  2  0  0  0  0
 21 25  1  0  0  0  0
 22 26  2  0  0  0  0
 24 27  1  0  0  0  0
 25 28  2  0  0  0  0
 10 11  1  0  0  0  0
 20 24  1  0  0  0  0
 26 28  1  0  0  0  0
M  END
>  <MolRegNo>
622275

>  <m>
=

>  <Value>
1

>  <Unit>
nM

>  <Type>
Ki

>  <pValue>
9

>  <Ligand Efficiency>
0.44

>  <Binding Efficiency>
24.29

>  <Surface Efficiency>
15.64

>  <Assay Index>
1081607

>  <Assay Category>


>  <Assay Organism>
Homo sapiens

>  <Target ID>
19

>  <Target Name>
Estrogen receptor alpha

>  <Target Organism>
Homo sapiens

>  <Target Description>
Target is a single protein chain

>  <Sequence Accession>
P03372

>  <Reference>
J Med Chem 60 (14), 6321-6336 (2017)

>  <Pubmed ID>
28657320

>  <DOI>
10.1021/acs.jmedchem.7b00585

$$$$
2274629
Actelion Java MolfileCreator 1.0

 34 39  0  0  0  0  0  0  0  0999 V2000
    0.0000   -0.0000   -0.0000 S   0  0  0  0  0  0  0  0  0  0  0  0
   -0.8862    1.2289   -0.0000 C   0  0  0  0  0  0  0  0  0  0  0  0
    1.4179    0.4726   -0.0000 C   0  0  0  0  0  0  0  0  0  0  0  0
   -0.0118    2.4460   -0.0000 C   0  0  0  0  0  0  0  0  0  0  0  0
   -2.3751    1.4061   -0.0000 C   0  0  0  0  0  0  0  0  0  0  0  0
    1.4061    1.9851   -0.0000 C   0  0  0  0  0  0  0  0  0  0  0  0
    2.6941   -0.2836   -0.0000 C   0  0  0  0  0  0  0  0  0  0  0  0
   -0.6263    3.8166   -0.0000 C   0  0  0  0  0  0  0  0  0  0  0  0
   -2.9895    2.7768   -0.0000 C   0  0  0  0  0  0  0  0  0  0  0  0
    2.6941    2.7296   -0.0000 C   0  0  0  0  0  0  0  0  0  0  0  0
    3.9703    0.4726   -0.0000 C   0  0  0  0  0  0  0  0  0  0  0  0
   -2.1269    3.9939   -0.0000 C   0  0  0  0  0  0  0  0  0  0  0  0
   -4.4902    2.9422   -0.0000 O   0  0  0  0  0  0  0  0  0  0  0  0
    3.9703    1.9851   -0.0000 C   0  0  0  0  0  0  0  0  0  0  0  0
    2.6941    4.2420   -0.0000 C   0  0  0  0  0  0  0  0  0  0  0  0
    5.2582   -0.2600   -0.0000 C   0  0  0  0  0  0  0  0  0  0  0  0
    5.2464    2.7650   -0.0000 C   0  0  0  0  0  0  0  0  0  0  0  0
    3.9939    4.9983   -0.0000 C   0  0  0  0  0  0  0  0  0  0  0  0
    1.3943    5.0101   -0.0000 C   0  0  0  0  0  0  0  0  0  0  0  0
    6.5462    0.4963   -0.0000 C   0  0  0  0  0  0  0  0  0  0  0  0
    6.5344    2.0324   -0.0000 C   0  0  0  0  0  0  0  0  0  0  0  0
    3.9939    6.5107   -0.0000 C   0  0  0  0  0  0  0  0  0  0  0  0
    1.3825    6.5226   -0.0000 C   0  0  0  0  0  0  0  0  0  0  0  0
    7.8224    2.8004   -0.0000 O   0  0  0  0  0  0  0  0  0  0  0  0
    2.6823    7.2788   -0.0000 C   0  0  0  0  0  0  0  0  0  0  0  0
    2.6823    8.7913   -0.0000 O   0  0  0  0  0  0  0  0  0  0  0  0
    3.9703    9.5475   -0.0000 C   0  0  0  0  0  0  0  0  0  0  0  0
    5.2582    8.8031   -0.0000 C   0  0  0  0  0  0  0  0  0  0  0  0
    6.5462    9.5593   -0.0000 N   0  0  0  0  0  0  0  0  0  0  0  0
    7.8224    8.8031   -0.0000 C   0  0  0  0  0  0  0  0  0  0  0  0
    6.5344   11.0718   -0.0000 C   0  0  0  0  0  0  0  0  0  0  0  0
    9.1103    9.5475   -0.0000 C   0  0  0  0  0  0  0  0  0  0  0  0
    7.8342   11.8162   -0.0000 C   0  0  0  0  0  0  0  0  0  0  0  0
    9.1103   11.0600   -0.0000 C   0  0  0  0  0  0  0  0  0  0  0  0
  1  2  1  0  0  0  0
  1  3  1  0  0  0  0
  2  4  2  0  0  0  0
  2  5  1  0  0  0  0
  3  6  2  0  0  0  0
  3  7  1  0  0  0  0
  4  8  1  0  0  0  0
  5  9  2  0  0  0  0
  6 10  1  0  0  0  0
  7 11  1  0  0  0  0
  8 12  2  0  0  0  0
  9 13  1  0  0  0  0
 10 14  1  0  0  0  0
 10 15  1  0  0  0  0
 11 16  1  0  0  0  0
 14 17  1  0  0  0  0
 15 18  2  0  0  0  0
 15 19  1  0  0  0  0
 16 20  2  0  0  0  0
 17 21  2  0  0  0  0
 18 22  1  0  0  0  0
 19 23  2  0  0  0  0
 21 24  1  0  0  0  0
 22 25  2  0  0  0  0
 25 26  1  0  0  0  0
 26 27  1  0  0  0  0
 27 28  1  0  0  0  0
 28 29  1  0  0  0  0
 29 30  1  0  0  0  0
 29 31  1  0  0  0  0
 30 32  1  0  0  0  0
 31 33  1  0  0  0  0
 32 34  1  0  0  0  0
  4  6  1  0  0  0  0
  9 12  1  0  0  0  0
 11 14  2  0  0  0  0
 20 21  1  0  0  0  0
 23 25  1  0  0  0  0
 33 34  1  0  0  0  0
M  END
>  <MolRegNo>
2274629

>  <m>
=

>  <Value>
0.5

>  <Unit>
nM

>  <Type>
Ki

>  <pValue>
9.3

>  <Ligand Efficiency>
0.37

>  <Binding Efficiency>
19.72

>  <Surface Efficiency>
17.57

>  <Assay Index>
1134374

>  <Assay Category>


>  <Assay Organism>
Homo sapiens

>  <Target ID>
19

>  <Target Name>
Estrogen receptor alpha

>  <Target Organism>
Homo sapiens

>  <Target Description>
Target is a single protein chain

>  <Sequence Accession>
P03372

>  <Reference>


>  <Pubmed ID>
28759875

>  <DOI>
10.1016/j.ejmech.2017.07.038

$$$$
2296586
Actelion Java MolfileCreator 1.0

 44 49  0  0  0  0  0  0  0  0999 V2000
    0.0000   -0.0000   -0.0000 S   0  0  0  0  0  0  0  0  0  0  0  0
   -0.8224    1.4044   -0.0000 O   0  0  0  0  0  0  0  0  0  0  0  0
    0.7844    1.4044   -0.0000 O   0  0  0  0  0  0  0  0  0  0  0  0
    1.3791   -0.7718   -0.0000 O   0  0  0  0  0  0  0  0  0  0  0  0
   -1.3917   -0.7971   -0.0000 C   0  0  0  0  0  0  0  0  0  0  0  0
    2.7455    0.0506   -0.0000 C   0  0  0  0  0  0  0  0  0  0  0  0
   -2.8087    0.0380   -0.0000 C   0  0  0  0  0  0  0  0  0  0  0  0
   -1.9231   -1.8978   -0.0000 C   0  0  0  0  0  0  0  0  0  0  0  0
    4.1245   -0.7338   -0.0000 C   0  0  0  0  0  0  0  0  0  0  0  0
    2.7202    1.6574   -0.0000 C   0  0  0  0  0  0  0  0  0  0  0  0
   -3.0997    1.5056   -0.0000 O   0  0  0  0  0  0  0  0  0  0  0  0
   -3.9600   -0.7465   -0.0000 C   0  0  0  0  0  0  0  0  0  0  0  0
   -3.2389   -1.2272   -0.0000 C   0  0  0  0  0  0  0  0  0  0  0  0
    5.4909    0.0886   -0.0000 C   0  0  0  0  0  0  0  0  0  0  0  0
    4.0739    2.4798   -0.0000 C   0  0  0  0  0  0  0  0  0  0  0  0
   -5.1367   -0.0633   -0.0000 C   0  0  0  0  0  0  0  0  0  0  0  0
   -4.6179   -1.8978   -0.0000 C   0  0  0  0  0  0  0  0  0  0  0  0
    6.8700   -0.6832   -0.0000 O   0  0  0  0  0  0  0  0  0  0  0  0
    5.4656    1.6954   -0.0000 C   0  0  0  0  0  0  0  0  0  0  0  0
   -5.1493    1.2905   -0.0000 C   0  0  0  0  0  0  0  0  0  0  0  0
   -6.3006   -0.7212   -0.0000 C   0  0  0  0  0  0  0  0  0  0  0  0
   -6.0096   -2.6822   -0.0000 C   0  0  0  0  0  0  0  0  0  0  0  0
    6.8700   -2.2647   -0.0000 C   0  0  0  0  0  0  0  0  0  0  0  0
   -6.3259    1.9737   -0.0000 C   0  0  0  0  0  0  0  0  0  0  0  0
   -7.4773   -0.0380   -0.0000 C   0  0  0  0  0  0  0  0  0  0  0  0
   -6.0223   -4.2763   -0.0000 C   0  0  0  0  0  0  0  0  0  0  0  0
   -7.4014   -1.8725   -0.0000 C   0  0  0  0  0  0  0  0  0  0  0  0
   -7.5026    1.3158   -0.0000 C   0  0  0  0  0  0  0  0  0  0  0  0
   -7.4267   -5.0608   -0.0000 C   0  0  0  0  0  0  0  0  0  0  0  0
   -8.7931   -2.6569   -0.0000 C   0  0  0  0  0  0  0  0  0  0  0  0
   -8.6792    1.9990   -0.0000 C   0  0  0  0  0  0  0  0  0  0  0  0
   -8.8184   -4.2510   -0.0000 C   0  0  0  0  0  0  0  0  0  0  0  0
   -8.6918    3.3528   -0.0000 C   0  0  0  0  0  0  0  0  0  0  0  0
  -10.2101   -5.0355   -0.0000 O   0  0  0  0  0  0  0  0  0  0  0  0
   -9.8685    4.0360   -0.0000 C   0  0  0  0  0  0  0  0  0  0  0  0
   -9.8811    5.4024   -0.0000 C   0  0  0  0  0  0  0  0  0  0  0  0
  -11.0451    3.3781   -0.0000 C   0  0  0  0  0  0  0  0  0  0  0  0
  -11.0578    6.0856   -0.0000 C   0  0  0  0  0  0  0  0  0  0  0  0
  -12.2217    4.0613   -0.0000 C   0  0  0  0  0  0  0  0  0  0  0  0
  -11.0704    7.4393   -0.0000 O   0  0  0  0  0  0  0  0  0  0  0  0
  -12.2344    5.4277   -0.0000 C   0  0  0  0  0  0  0  0  0  0  0  0
  -13.3984    3.3907   -0.0000 O   0  0  0  0  0  0  0  0  0  0  0  0
   -9.9317    8.1225   -0.0000 C   0  0  0  0  0  0  0  0  0  0  0  0
  -14.5876    4.0739   -0.0000 C   0  0  0  0  0  0  0  0  0  0  0  0
  1  2  2  0  0  0  0
  1  3  2  0  0  0  0
  1  4  1  0  0  0  0
  1  5  1  0  0  0  0
  4  6  1  0  0  0  0
  5  7  1  0  0  0  0
  5  8  1  0  0  0  0
  6  9  2  0  0  0  0
  6 10  1  0  0  0  0
  7 11  1  0  0  0  0
  7 12  1  0  0  0  0
  8 13  1  0  0  0  0
  9 14  1  0  0  0  0
 10 15  2  0  0  0  0
 12 16  1  0  0  0  0
 12 17  2  0  0  0  0
 14 18  1  0  0  0  0
 14 19  2  0  0  0  0
 16 20  2  0  0  0  0
 16 21  1  0  0  0  0
 17 22  1  0  0  0  0
 18 23  1  0  0  0  0
 20 24  1  0  0  0  0
 21 25  2  0  0  0  0
 22 26  2  0  0  0  0
 22 27  1  0  0  0  0
 24 28  2  0  0  0  0
 26 29  1  0  0  0  0
 27 30  2  0  0  0  0
 28 31  1  0  0  0  0
 29 32  2  0  0  0  0
 31 33  2  0  0  0  0
 32 34  1  0  0  0  0
 33 35  1  0  0  0  0
 35 36  2  0  0  0  0
 35 37  1  0  0  0  0
 36 38  1  0  0  0  0
 37 39  2  0  0  0  0
 38 40  1  0  0  0  0
 38 41  2  0  0  0  0
 39 42  1  0  0  0  0
 40 43  1  0  0  0  0
 42 44  1  0  0  0  0
 11 13  1  0  0  0  0
 13 17  1  0  0  0  0
 15 19  1  0  0  0  0
 25 28  1  0  0  0  0
 30 32  1  0  0  0  0
 39 41  1  0  0  0  0
M  END
>  <MolRegNo>
2296586

>  <m>
=

>  <Value>
249.29

>  <Unit>
nM

>  <Type>
Ki

>  <pValue>
6.6

>  <Ligand Efficiency>
0.2

>  <Binding Efficiency>
10.78

>  <Surface Efficiency>
6.57

>  <Assay Index>
1182125

>  <Assay Category>


>  <Assay Organism>
Homo sapiens

>  <Target ID>
19

>  <Target Name>
Estrogen receptor alpha

>  <Target Organism>
Homo sapiens

>  <Target Description>
Target is a single protein chain

>  <Sequence Accession>
P03372

>  <Reference>
J Med Chem 61 (18), 8155-8173 (2018)

>  <Pubmed ID>
30053783

>  <DOI>
10.1021/acs.jmedchem.8b00224

$$$$
2286227
Actelion Java MolfileCreator 1.0

 44 49  0  0  0  0  0  0  0  0999 V2000
    0.0000   -0.0000   -0.0000 S   0  0  0  0  0  0  0  0  0  0  0  0
   -0.8220    1.4038   -0.0000 O   0  0  0  0  0  0  0  0  0  0  0  0
    0.7841    1.4038   -0.0000 O   0  0  0  0  0  0  0  0  0  0  0  0
    1.3785   -0.7715   -0.0000 O   0  0  0  0  0  0  0  0  0  0  0  0
   -1.3911   -0.7967   -0.0000 C   0  0  0  0  0  0  0  0  0  0  0  0
    2.7444    0.0506   -0.0000 C   0  0  0  0  0  0  0  0  0  0  0  0
   -2.8076    0.0379   -0.0000 C   0  0  0  0  0  0  0  0  0  0  0  0
   -1.9223   -1.8970   -0.0000 C   0  0  0  0  0  0  0  0  0  0  0  0
    4.1228   -0.7335   -0.0000 C   0  0  0  0  0  0  0  0  0  0  0  0
    2.7191    1.6567   -0.0000 C   0  0  0  0  0  0  0  0  0  0  0  0
   -3.0985    1.5050   -0.0000 O   0  0  0  0  0  0  0  0  0  0  0  0
   -3.9584   -0.7462   -0.0000 C   0  0  0  0  0  0  0  0  0  0  0  0
   -3.2376   -1.2267   -0.0000 C   0  0  0  0  0  0  0  0  0  0  0  0
    5.4887    0.0885   -0.0000 C   0  0  0  0  0  0  0  0  0  0  0  0
    4.1228   -2.3144   -0.0000 C   0  0  0  0  0  0  0  0  0  0  0  0
    4.0723    2.4788   -0.0000 C   0  0  0  0  0  0  0  0  0  0  0  0
   -5.1346   -0.0632   -0.0000 C   0  0  0  0  0  0  0  0  0  0  0  0
   -4.6161   -1.8970   -0.0000 C   0  0  0  0  0  0  0  0  0  0  0  0
    5.4634    1.6947   -0.0000 C   0  0  0  0  0  0  0  0  0  0  0  0
    2.7317   -3.1111   -0.0000 C   0  0  0  0  0  0  0  0  0  0  0  0
   -5.1472    1.2900   -0.0000 C   0  0  0  0  0  0  0  0  0  0  0  0
   -6.2981   -0.7209   -0.0000 C   0  0  0  0  0  0  0  0  0  0  0  0
   -6.0072   -2.6938   -0.0000 C   0  0  0  0  0  0  0  0  0  0  0  0
   -6.3234    1.9729   -0.0000 C   0  0  0  0  0  0  0  0  0  0  0  0
   -7.4742   -0.0379   -0.0000 C   0  0  0  0  0  0  0  0  0  0  0  0
   -6.0199   -4.2873   -0.0000 C   0  0  0  0  0  0  0  0  0  0  0  0
   -7.3984   -1.8844   -0.0000 C   0  0  0  0  0  0  0  0  0  0  0  0
   -7.4995    1.3153   -0.0000 C   0  0  0  0  0  0  0  0  0  0  0  0
   -7.4237   -5.0714   -0.0000 C   0  0  0  0  0  0  0  0  0  0  0  0
   -8.7895   -2.6685   -0.0000 C   0  0  0  0  0  0  0  0  0  0  0  0
   -8.6757    1.9982   -0.0000 C   0  0  0  0  0  0  0  0  0  0  0  0
   -8.8148   -4.2620   -0.0000 C   0  0  0  0  0  0  0  0  0  0  0  0
   -8.6883    3.3514   -0.0000 C   0  0  0  0  0  0  0  0  0  0  0  0
  -10.2059   -5.0461   -0.0000 O   0  0  0  0  0  0  0  0  0  0  0  0
   -9.8645    4.0343   -0.0000 C   0  0  0  0  0  0  0  0  0  0  0  0
   -9.8771    5.4002   -0.0000 C   0  0  0  0  0  0  0  0  0  0  0  0
  -11.0406    3.3767   -0.0000 C   0  0  0  0  0  0  0  0  0  0  0  0
  -11.0533    6.0831   -0.0000 C   0  0  0  0  0  0  0  0  0  0  0  0
  -12.2168    4.0596   -0.0000 C   0  0  0  0  0  0  0  0  0  0  0  0
  -11.0659    7.4363   -0.0000 O   0  0  0  0  0  0  0  0  0  0  0  0
  -12.2294    5.4255   -0.0000 C   0  0  0  0  0  0  0  0  0  0  0  0
  -13.3929    3.3893   -0.0000 O   0  0  0  0  0  0  0  0  0  0  0  0
   -9.9277    8.1192   -0.0000 C   0  0  0  0  0  0  0  0  0  0  0  0
  -14.5817    4.0723   -0.0000 C   0  0  0  0  0  0  0  0  0  0  0  0
  1  2  2  0  0  0  0
  1  3  2  0  0  0  0
  1  4  1  0  0  0  0
  1  5  1  0  0  0  0
  4  6  1  0  0  0  0
  5  7  1  0  0  0  0
  5  8  1  0  0  0  0
  6  9  2  0  0  0  0
  6 10  1  0  0  0  0
  7 11  1  0  0  0  0
  7 12  1  0  0  0  0
  8 13  1  0  0  0  0
  9 14  1  0  0  0  0
  9 15  1  0  0  0  0
 10 16  2  0  0  0  0
 12 17  1  0  0  0  0
 12 18  2  0  0  0  0
 14 19  2  0  0  0  0
 15 20  1  0  0  0  0
 17 21  2  0  0  0  0
 17 22  1  0  0  0  0
 18 23  1  0  0  0  0
 21 24  1  0  0  0  0
 22 25  2  0  0  0  0
 23 26  2  0  0  0  0
 23 27  1  0  0  0  0
 24 28  2  0  0  0  0
 26 29  1  0  0  0  0
 27 30  2  0  0  0  0
 28 31  1  0  0  0  0
 29 32  2  0  0  0  0
 31 33  2  0  0  0  0
 32 34  1  0  0  0  0
 33 35  1  0  0  0  0
 35 36  2  0  0  0  0
 35 37  1  0  0  0  0
 36 38  1  0  0  0  0
 37 39  2  0  0  0  0
 38 40  1  0  0  0  0
 38 41  2  0  0  0  0
 39 42  1  0  0  0  0
 40 43  1  0  0  0  0
 42 44  1  0  0  0  0
 11 13  1  0  0  0  0
 13 18  1  0  0  0  0
 16 19  1  0  0  0  0
 25 28  1  0  0  0  0
 30 32  1  0  0  0  0
 39 41  1  0  0  0  0
M  END
>  <MolRegNo>
2286227

>  <m>
=

>  <Value>
53.28

>  <Unit>
nM

>  <Type>
Ki

>  <pValue>
7.27

>  <Ligand Efficiency>
0.23

>  <Binding Efficiency>
11.91

>  <Surface Efficiency>
7.97

>  <Assay Index>
1182125

>  <Assay Category>


>  <Assay Organism>
Homo sapiens

>  <Target ID>
19

>  <Target Name>
Estrogen receptor alpha

>  <Target Organism>
Homo sapiens

>  <Target Description>
Target is a single protein chain

>  <Sequence Accession>
P03372

>  <Reference>
J Med Chem 61 (18), 8155-8173 (2018)

>  <Pubmed ID>
30053783

>  <DOI>
10.1021/acs.jmedchem.8b00224

$$$$
2291133
Actelion Java MolfileCreator 1.0

 40 45  0  0  0  0  0  0  0  0999 V2000
    0.0000   -0.0000   -0.0000 S   0  0  0  0  0  0  0  0  0  0  0  0
   -0.8207    1.4015   -0.0000 O   0  0  0  0  0  0  0  0  0  0  0  0
    0.7828    1.4015   -0.0000 O   0  0  0  0  0  0  0  0  0  0  0  0
    1.3762   -0.7702   -0.0000 O   0  0  0  0  0  0  0  0  0  0  0  0
   -1.3889   -0.7954   -0.0000 C   0  0  0  0  0  0  0  0  0  0  0  0
    2.7398    0.0505   -0.0000 C   0  0  0  0  0  0  0  0  0  0  0  0
   -2.8030    0.0379   -0.0000 C   0  0  0  0  0  0  0  0  0  0  0  0
   -1.9191   -1.8939   -0.0000 C   0  0  0  0  0  0  0  0  0  0  0  0
    4.1161   -0.7323   -0.0000 C   0  0  0  0  0  0  0  0  0  0  0  0
    2.7146    1.6540   -0.0000 C   0  0  0  0  0  0  0  0  0  0  0  0
   -3.0934    1.5025   -0.0000 O   0  0  0  0  0  0  0  0  0  0  0  0
   -3.9519   -0.7449   -0.0000 C   0  0  0  0  0  0  0  0  0  0  0  0
   -3.2322   -1.2247   -0.0000 C   0  0  0  0  0  0  0  0  0  0  0  0
    5.4797    0.0884   -0.0000 C   0  0  0  0  0  0  0  0  0  0  0  0
    4.0656    2.4747   -0.0000 C   0  0  0  0  0  0  0  0  0  0  0  0
   -5.1261   -0.0631   -0.0000 C   0  0  0  0  0  0  0  0  0  0  0  0
   -4.6085   -1.8939   -0.0000 C   0  0  0  0  0  0  0  0  0  0  0  0
    5.4544    1.6919   -0.0000 C   0  0  0  0  0  0  0  0  0  0  0  0
   -5.1388    1.2878   -0.0000 C   0  0  0  0  0  0  0  0  0  0  0  0
   -6.2877   -0.7197   -0.0000 C   0  0  0  0  0  0  0  0  0  0  0  0
   -5.9973   -2.6767   -0.0000 C   0  0  0  0  0  0  0  0  0  0  0  0
   -6.3130    1.9696   -0.0000 C   0  0  0  0  0  0  0  0  0  0  0  0
   -7.4619   -0.0379   -0.0000 C   0  0  0  0  0  0  0  0  0  0  0  0
   -6.0099   -4.2676   -0.0000 C   0  0  0  0  0  0  0  0  0  0  0  0
   -7.3862   -1.8686   -0.0000 C   0  0  0  0  0  0  0  0  0  0  0  0
   -7.4872    1.3131   -0.0000 C   0  0  0  0  0  0  0  0  0  0  0  0
   -7.4114   -5.0504   -0.0000 C   0  0  0  0  0  0  0  0  0  0  0  0
   -8.7750   -2.6514   -0.0000 C   0  0  0  0  0  0  0  0  0  0  0  0
   -8.6614    1.9949   -0.0000 C   0  0  0  0  0  0  0  0  0  0  0  0
   -8.8003   -4.2423   -0.0000 C   0  0  0  0  0  0  0  0  0  0  0  0
   -8.6740    3.3459   -0.0000 C   0  0  0  0  0  0  0  0  0  0  0  0
  -10.1891   -5.0251   -0.0000 O   0  0  0  0  0  0  0  0  0  0  0  0
   -9.8482    4.0277   -0.0000 C   0  0  0  0  0  0  0  0  0  0  0  0
   -9.8609    5.3913   -0.0000 C   0  0  0  0  0  0  0  0  0  0  0  0
  -11.0224    3.3711   -0.0000 C   0  0  0  0  0  0  0  0  0  0  0  0
  -11.0351    6.0731   -0.0000 C   0  0  0  0  0  0  0  0  0  0  0  0
  -12.1967    4.0529   -0.0000 C   0  0  0  0  0  0  0  0  0  0  0  0
  -11.0477    7.4241   -0.0000 O   0  0  0  0  0  0  0  0  0  0  0  0
  -12.2093    5.4165   -0.0000 C   0  0  0  0  0  0  0  0  0  0  0  0
  -13.3709    3.3838   -0.0000 O   0  0  0  0  0  0  0  0  0  0  0  0
  1  2  2  0  0  0  0
  1  3  2  0  0  0  0
  1  4  1  0  0  0  0
  1  5  1  0  0  0  0
  4  6  1  0  0  0  0
  5  7  1  0  0  0  0
  5  8  1  0  0  0  0
  6  9  2  0  0  0  0
  6 10  1  0  0  0  0
  7 11  1  0  0  0  0
  7 12  1  0  0  0  0
  8 13  1  0  0  0  0
  9 14  1  0  0  0  0
 10 15  2  0  0  0  0
 12 16  1  0  0  0  0
 12 17  2  0  0  0  0
 14 18  2  0  0  0  0
 16 19  2  0  0  0  0
 16 20  1  0  0  0  0
 17 21  1  0  0  0  0
 19 22  1  0  0  0  0
 20 23  2  0  0  0  0
 21 24  2  0  0  0  0
 21 25  1  0  0  0  0
 22 26  2  0  0  0  0
 24 27  1  0  0  0  0
 25 28  2  0  0  0  0
 26 29  1  0  0  0  0
 27 30  2  0  0  0  0
 29 31  2  0  0  0  0
 30 32  1  0  0  0  0
 31 33  1  0  0  0  0
 33 34  2  0  0  0  0
 33 35  1  0  0  0  0
 34 36  1  0  0  0  0
 35 37  2  0  0  0  0
 36 38  1  0  0  0  0
 36 39  2  0  0  0  0
 37 40  1  0  0  0  0
 11 13  1  0  0  0  0
 13 17  1  0  0  0  0
 15 18  1  0  0  0  0
 23 26  1  0  0  0  0
 28 30  1  0  0  0  0
 37 39  1  0  0  0  0
M  END
>  <MolRegNo>
2291133

>  <m>
=

>  <Value>
62.1

>  <Unit>
nM

>  <Type>
Ki

>  <pValue>
7.21

>  <Ligand Efficiency>
0.25

>  <Binding Efficiency>
12.99

>  <Surface Efficiency>
6.36

>  <Assay Index>
1182125

>  <Assay Category>


>  <Assay Organism>
Homo sapiens

>  <Target ID>
19

>  <Target Name>
Estrogen receptor alpha

>  <Target Organism>
Homo sapiens

>  <Target Description>
Target is a single protein chain

>  <Sequence Accession>
P03372

>  <Reference>
J Med Chem 61 (18), 8155-8173 (2018)

>  <Pubmed ID>
30053783

>  <DOI>
10.1021/acs.jmedchem.8b00224

$$$$
2281866
Actelion Java MolfileCreator 1.0

 41 46  0  0  0  0  0  0  0  0999 V2000
    0.0000   -0.0000   -0.0000 Br  0  0  0  0  0  0  0  0  0  0  0  0
   -1.3852   -0.7933   -0.0000 C   0  0  0  0  0  0  0  0  0  0  0  0
   -1.3852   -2.3674   -0.0000 C   0  0  0  0  0  0  0  0  0  0  0  0
   -2.7956   -0.0000   -0.0000 C   0  0  0  0  0  0  0  0  0  0  0  0
   -2.7704   -3.1608   -0.0000 C   0  0  0  0  0  0  0  0  0  0  0  0
   -4.1682   -0.7933   -0.0000 C   0  0  0  0  0  0  0  0  0  0  0  0
   -4.1682   -2.3548   -0.0000 C   0  0  0  0  0  0  0  0  0  0  0  0
   -5.5534   -3.1482   -0.0000 O   0  0  0  0  0  0  0  0  0  0  0  0
   -6.9511   -2.3548   -0.0000 S   0  0  0  0  0  0  0  0  0  0  0  0
   -7.7697   -0.9570   -0.0000 O   0  0  0  0  0  0  0  0  0  0  0  0
   -6.1704   -0.9570   -0.0000 O   0  0  0  0  0  0  0  0  0  0  0  0
   -8.3363   -3.1482   -0.0000 C   0  0  0  0  0  0  0  0  0  0  0  0
   -9.7593   -2.3170   -0.0000 C   0  0  0  0  0  0  0  0  0  0  0  0
   -8.8652   -4.2437   -0.0000 C   0  0  0  0  0  0  0  0  0  0  0  0
  -10.0489   -0.8563   -0.0000 O   0  0  0  0  0  0  0  0  0  0  0  0
  -10.9052   -3.0978   -0.0000 C   0  0  0  0  0  0  0  0  0  0  0  0
  -10.1748   -3.5763   -0.0000 C   0  0  0  0  0  0  0  0  0  0  0  0
  -12.0763   -2.4178   -0.0000 C   0  0  0  0  0  0  0  0  0  0  0  0
  -11.5600   -4.2437   -0.0000 C   0  0  0  0  0  0  0  0  0  0  0  0
  -12.0889   -1.0704   -0.0000 C   0  0  0  0  0  0  0  0  0  0  0  0
  -13.2349   -3.0726   -0.0000 C   0  0  0  0  0  0  0  0  0  0  0  0
  -12.9452   -5.0245   -0.0000 C   0  0  0  0  0  0  0  0  0  0  0  0
  -13.2600   -0.3904   -0.0000 C   0  0  0  0  0  0  0  0  0  0  0  0
  -14.4060   -2.3926   -0.0000 C   0  0  0  0  0  0  0  0  0  0  0  0
  -12.9578   -6.6111   -0.0000 C   0  0  0  0  0  0  0  0  0  0  0  0
  -14.3304   -4.2185   -0.0000 C   0  0  0  0  0  0  0  0  0  0  0  0
  -14.4312   -1.0452   -0.0000 C   0  0  0  0  0  0  0  0  0  0  0  0
  -14.3556   -7.3919   -0.0000 C   0  0  0  0  0  0  0  0  0  0  0  0
  -15.7156   -4.9993   -0.0000 C   0  0  0  0  0  0  0  0  0  0  0  0
  -15.6023   -0.3652   -0.0000 C   0  0  0  0  0  0  0  0  0  0  0  0
  -15.7408   -6.5859   -0.0000 C   0  0  0  0  0  0  0  0  0  0  0  0
  -15.6149    0.9822   -0.0000 C   0  0  0  0  0  0  0  0  0  0  0  0
  -17.1260   -7.3667   -0.0000 O   0  0  0  0  0  0  0  0  0  0  0  0
  -16.7860    1.6622   -0.0000 C   0  0  0  0  0  0  0  0  0  0  0  0
  -16.7986    3.0222   -0.0000 C   0  0  0  0  0  0  0  0  0  0  0  0
  -17.9571    1.0074   -0.0000 C   0  0  0  0  0  0  0  0  0  0  0  0
  -17.9697    3.7022   -0.0000 C   0  0  0  0  0  0  0  0  0  0  0  0
  -19.1282    1.6874   -0.0000 C   0  0  0  0  0  0  0  0  0  0  0  0
  -17.9823    5.0496   -0.0000 O   0  0  0  0  0  0  0  0  0  0  0  0
  -19.1408    3.0474   -0.0000 C   0  0  0  0  0  0  0  0  0  0  0  0
  -20.2993    1.0200   -0.0000 O   0  0  0  0  0  0  0  0  0  0  0  0
  1  2  1  0  0  0  0
  2  3  2  0  0  0  0
  2  4  1  0  0  0  0
  3  5  1  0  0  0  0
  4  6  2  0  0  0  0
  5  7  2  0  0  0  0
  7  8  1  0  0  0  0
  8  9  1  0  0  0  0
  9 10  2  0  0  0  0
  9 11  2  0  0  0  0
  9 12  1  0  0  0  0
 12 13  1  0  0  0  0
 12 14  1  0  0  0  0
 13 15  1  0  0  0  0
 13 16  1  0  0  0  0
 14 17  1  0  0  0  0
 16 18  1  0  0  0  0
 16 19  2  0  0  0  0
 18 20  2  0  0  0  0
 18 21  1  0  0  0  0
 19 22  1  0  0  0  0
 20 23  1  0  0  0  0
 21 24  2  0  0  0  0
 22 25  2  0  0  0  0
 22 26  1  0  0  0  0
 23 27  2  0  0  0  0
 25 28  1  0  0  0  0
 26 29  2  0  0  0  0
 27 30  1  0  0  0  0
 28 31  2  0  0  0  0
 30 32  2  0  0  0  0
 31 33  1  0  0  0  0
 32 34  1  0  0  0  0
 34 35  2  0  0  0  0
 34 36  1  0  0  0  0
 35 37  1  0  0  0  0
 36 38  2  0  0  0  0
 37 39  1  0  0  0  0
 37 40  2  0  0  0  0
 38 41  1  0  0  0  0
  6  7  1  0  0  0  0
 15 17  1  0  0  0  0
 17 19  1  0  0  0  0
 24 27  1  0  0  0  0
 29 31  1  0  0  0  0
 38 40  1  0  0  0  0
M  END
>  <MolRegNo>
2281866

>  <m>
=

>  <Value>
119.52

>  <Unit>
nM

>  <Type>
Ki

>  <pValue>
6.92

>  <Ligand Efficiency>
0.23

>  <Binding Efficiency>
10.93

>  <Surface Efficiency>
6.11

>  <Assay Index>
1182125

>  <Assay Category>


>  <Assay Organism>
Homo sapiens

>  <Target ID>
19

>  <Target Name>
Estrogen receptor alpha

>  <Target Organism>
Homo sapiens

>  <Target Description>
Target is a single protein chain

>  <Sequence Accession>
P03372

>  <Reference>
J Med Chem 61 (18), 8155-8173 (2018)

>  <Pubmed ID>
30053783

>  <DOI>
10.1021/acs.jmedchem.8b00224

$$$$
2286744
Actelion Java MolfileCreator 1.0

 42 47  0  0  0  0  0  0  0  0999 V2000
    0.0000   -0.0000   -0.0000 S   0  0  0  0  0  0  0  0  0  0  0  0
   -0.8183    1.3974   -0.0000 O   0  0  0  0  0  0  0  0  0  0  0  0
    0.7805    1.3974   -0.0000 O   0  0  0  0  0  0  0  0  0  0  0  0
    1.3722   -0.7679   -0.0000 O   0  0  0  0  0  0  0  0  0  0  0  0
   -1.3848   -0.7931   -0.0000 C   0  0  0  0  0  0  0  0  0  0  0  0
    2.7318    0.0504   -0.0000 C   0  0  0  0  0  0  0  0  0  0  0  0
   -2.7947    0.0378   -0.0000 C   0  0  0  0  0  0  0  0  0  0  0  0
   -1.9135   -1.8883   -0.0000 C   0  0  0  0  0  0  0  0  0  0  0  0
    2.7066    1.6491   -0.0000 C   0  0  0  0  0  0  0  0  0  0  0  0
    4.1040   -0.7302   -0.0000 C   0  0  0  0  0  0  0  0  0  0  0  0
   -3.0843    1.4981   -0.0000 O   0  0  0  0  0  0  0  0  0  0  0  0
   -3.9403   -0.7427   -0.0000 C   0  0  0  0  0  0  0  0  0  0  0  0
   -3.2227   -1.2211   -0.0000 C   0  0  0  0  0  0  0  0  0  0  0  0
    4.0536    2.4674   -0.0000 C   0  0  0  0  0  0  0  0  0  0  0  0
    5.4635    0.0881   -0.0000 C   0  0  0  0  0  0  0  0  0  0  0  0
   -5.1111   -0.0629   -0.0000 C   0  0  0  0  0  0  0  0  0  0  0  0
   -4.5949   -1.8883   -0.0000 C   0  0  0  0  0  0  0  0  0  0  0  0
    4.0284    4.0662   -0.0000 O   0  0  0  0  0  0  0  0  0  0  0  0
    5.4384    1.6995   -0.0000 C   0  0  0  0  0  0  0  0  0  0  0  0
   -5.1236    1.2841   -0.0000 C   0  0  0  0  0  0  0  0  0  0  0  0
   -6.2692   -0.7176   -0.0000 C   0  0  0  0  0  0  0  0  0  0  0  0
   -5.9797   -2.6814   -0.0000 C   0  0  0  0  0  0  0  0  0  0  0  0
    5.3880    4.8845   -0.0000 C   0  0  0  0  0  0  0  0  0  0  0  0
   -6.2944    1.9639   -0.0000 C   0  0  0  0  0  0  0  0  0  0  0  0
   -7.4400   -0.0378   -0.0000 C   0  0  0  0  0  0  0  0  0  0  0  0
   -5.9923   -4.2676   -0.0000 C   0  0  0  0  0  0  0  0  0  0  0  0
   -7.3645   -1.8757   -0.0000 C   0  0  0  0  0  0  0  0  0  0  0  0
   -7.4652    1.3092   -0.0000 C   0  0  0  0  0  0  0  0  0  0  0  0
   -7.3896   -5.0481   -0.0000 C   0  0  0  0  0  0  0  0  0  0  0  0
   -8.7492   -2.6562   -0.0000 C   0  0  0  0  0  0  0  0  0  0  0  0
   -8.6359    1.9890   -0.0000 C   0  0  0  0  0  0  0  0  0  0  0  0
   -8.7744   -4.2424   -0.0000 C   0  0  0  0  0  0  0  0  0  0  0  0
   -8.6485    3.3360   -0.0000 C   0  0  0  0  0  0  0  0  0  0  0  0
  -10.1592   -5.0229   -0.0000 O   0  0  0  0  0  0  0  0  0  0  0  0
   -9.8193    4.0158   -0.0000 C   0  0  0  0  0  0  0  0  0  0  0  0
   -9.8319    5.3754   -0.0000 C   0  0  0  0  0  0  0  0  0  0  0  0
  -10.9900    3.3612   -0.0000 C   0  0  0  0  0  0  0  0  0  0  0  0
  -11.0026    6.0552   -0.0000 C   0  0  0  0  0  0  0  0  0  0  0  0
  -12.1608    4.0410   -0.0000 C   0  0  0  0  0  0  0  0  0  0  0  0
  -11.0152    7.4022   -0.0000 O   0  0  0  0  0  0  0  0  0  0  0  0
  -12.1734    5.4006   -0.0000 C   0  0  0  0  0  0  0  0  0  0  0  0
  -13.3316    3.3738   -0.0000 O   0  0  0  0  0  0  0  0  0  0  0  0
  1  2  2  0  0  0  0
  1  3  2  0  0  0  0
  1  4  1  0  0  0  0
  1  5  1  0  0  0  0
  4  6  1  0  0  0  0
  5  7  1  0  0  0  0
  5  8  1  0  0  0  0
  6  9  2  0  0  0  0
  6 10  1  0  0  0  0
  7 11  1  0  0  0  0
  7 12  1  0  0  0  0
  8 13  1  0  0  0  0
  9 14  1  0  0  0  0
 10 15  2  0  0  0  0
 12 16  1  0  0  0  0
 12 17  2  0  0  0  0
 14 18  1  0  0  0  0
 14 19  2  0  0  0  0
 16 20  2  0  0  0  0
 16 21  1  0  0  0  0
 17 22  1  0  0  0  0
 18 23  1  0  0  0  0
 20 24  1  0  0  0  0
 21 25  2  0  0  0  0
 22 26  2  0  0  0  0
 22 27  1  0  0  0  0
 24 28  2  0  0  0  0
 26 29  1  0  0  0  0
 27 30  2  0  0  0  0
 28 31  1  0  0  0  0
 29 32  2  0  0  0  0
 31 33  2  0  0  0  0
 32 34  1  0  0  0  0
 33 35  1  0  0  0  0
 35 36  2  0  0  0  0
 35 37  1  0  0  0  0
 36 38  1  0  0  0  0
 37 39  2  0  0  0  0
 38 40  1  0  0  0  0
 38 41  2  0  0  0  0
 39 42  1  0  0  0  0
 11 13  1  0  0  0  0
 13 17  1  0  0  0  0
 15 19  1  0  0  0  0
 25 28  1  0  0  0  0
 30 32  1  0  0  0  0
 39 41  1  0  0  0  0
M  END
>  <MolRegNo>
2286744

>  <m>
=

>  <Value>
62.43

>  <Unit>
nM

>  <Type>
Ki

>  <pValue>
7.21

>  <Ligand Efficiency>
0.23

>  <Binding Efficiency>
12.32

>  <Surface Efficiency>
5.88

>  <Assay Index>
1182125

>  <Assay Category>


>  <Assay Organism>
Homo sapiens

>  <Target ID>
19

>  <Target Name>
Estrogen receptor alpha

>  <Target Organism>
Homo sapiens

>  <Target Description>
Target is a single protein chain

>  <Sequence Accession>
P03372

>  <Reference>
J Med Chem 61 (18), 8155-8173 (2018)

>  <Pubmed ID>
30053783

>  <DOI>
10.1021/acs.jmedchem.8b00224

$$$$
2295028
Actelion Java MolfileCreator 1.0

 41 46  0  0  0  0  0  0  0  0999 V2000
    0.0000   -0.0000   -0.0000 S   0  0  0  0  0  0  0  0  0  0  0  0
   -0.8193    1.3992   -0.0000 O   0  0  0  0  0  0  0  0  0  0  0  0
    0.7815    1.3992   -0.0000 O   0  0  0  0  0  0  0  0  0  0  0  0
    1.3740   -0.7689   -0.0000 O   0  0  0  0  0  0  0  0  0  0  0  0
   -1.3866   -0.7941   -0.0000 C   0  0  0  0  0  0  0  0  0  0  0  0
    2.7353    0.0504   -0.0000 C   0  0  0  0  0  0  0  0  0  0  0  0
   -2.8110    0.0378   -0.0000 C   0  0  0  0  0  0  0  0  0  0  0  0
   -1.9160   -1.8908   -0.0000 C   0  0  0  0  0  0  0  0  0  0  0  0
    4.1093   -0.7311   -0.0000 C   0  0  0  0  0  0  0  0  0  0  0  0
    2.7101    1.6513   -0.0000 C   0  0  0  0  0  0  0  0  0  0  0  0
   -3.1009    1.5000   -0.0000 O   0  0  0  0  0  0  0  0  0  0  0  0
   -3.9581   -0.7437   -0.0000 C   0  0  0  0  0  0  0  0  0  0  0  0
   -3.2269   -1.2227   -0.0000 C   0  0  0  0  0  0  0  0  0  0  0  0
    5.4707    0.0882   -0.0000 C   0  0  0  0  0  0  0  0  0  0  0  0
    4.0589    2.4706   -0.0000 C   0  0  0  0  0  0  0  0  0  0  0  0
   -5.1303   -0.0630   -0.0000 C   0  0  0  0  0  0  0  0  0  0  0  0
   -4.6135   -1.8908   -0.0000 C   0  0  0  0  0  0  0  0  0  0  0  0
    5.4455    1.6891   -0.0000 C   0  0  0  0  0  0  0  0  0  0  0  0
   -5.1429    1.2857   -0.0000 C   0  0  0  0  0  0  0  0  0  0  0  0
   -6.2900   -0.7185   -0.0000 C   0  0  0  0  0  0  0  0  0  0  0  0
   -6.0001   -2.6723   -0.0000 C   0  0  0  0  0  0  0  0  0  0  0  0
    6.8068    2.5084   -0.0000 F   0  0  0  0  0  0  0  0  0  0  0  0
   -6.3152    1.9664   -0.0000 C   0  0  0  0  0  0  0  0  0  0  0  0
   -7.4623   -0.0378   -0.0000 C   0  0  0  0  0  0  0  0  0  0  0  0
   -6.0127   -4.2606   -0.0000 C   0  0  0  0  0  0  0  0  0  0  0  0
   -7.3867   -1.8656   -0.0000 C   0  0  0  0  0  0  0  0  0  0  0  0
   -7.4875    1.3109   -0.0000 C   0  0  0  0  0  0  0  0  0  0  0  0
   -7.4119   -5.0421   -0.0000 C   0  0  0  0  0  0  0  0  0  0  0  0
   -8.7733   -2.6471   -0.0000 C   0  0  0  0  0  0  0  0  0  0  0  0
   -8.6598    1.9916   -0.0000 C   0  0  0  0  0  0  0  0  0  0  0  0
   -8.7985   -4.2354   -0.0000 C   0  0  0  0  0  0  0  0  0  0  0  0
   -8.6724    3.3404   -0.0000 C   0  0  0  0  0  0  0  0  0  0  0  0
  -10.1851   -5.0169   -0.0000 O   0  0  0  0  0  0  0  0  0  0  0  0
   -9.8447    4.0211   -0.0000 C   0  0  0  0  0  0  0  0  0  0  0  0
   -9.8573    5.3824   -0.0000 C   0  0  0  0  0  0  0  0  0  0  0  0
  -11.0170    3.3656   -0.0000 C   0  0  0  0  0  0  0  0  0  0  0  0
  -11.0296    6.0631   -0.0000 C   0  0  0  0  0  0  0  0  0  0  0  0
  -12.1893    4.0463   -0.0000 C   0  0  0  0  0  0  0  0  0  0  0  0
  -11.0422    7.4119   -0.0000 O   0  0  0  0  0  0  0  0  0  0  0  0
  -12.2019    5.4077   -0.0000 C   0  0  0  0  0  0  0  0  0  0  0  0
  -13.3616    3.3782   -0.0000 O   0  0  0  0  0  0  0  0  0  0  0  0
  1  2  2  0  0  0  0
  1  3  2  0  0  0  0
  1  4  1  0  0  0  0
  1  5  1  0  0  0  0
  4  6  1  0  0  0  0
  5  7  1  0  0  0  0
  5  8  1  0  0  0  0
  6  9  2  0  0  0  0
  6 10  1  0  0  0  0
  7 11  1  0  0  0  0
  7 12  1  0  0  0  0
  8 13  1  0  0  0  0
  9 14  1  0  0  0  0
 10 15  2  0  0  0  0
 12 16  1  0  0  0  0
 12 17  2  0  0  0  0
 14 18  2  0  0  0  0
 16 19  2  0  0  0  0
 16 20  1  0  0  0  0
 17 21  1  0  0  0  0
 18 22  1  0  0  0  0
 19 23  1  0  0  0  0
 20 24  2  0  0  0  0
 21 25  2  0  0  0  0
 21 26  1  0  0  0  0
 23 27  2  0  0  0  0
 25 28  1  0  0  0  0
 26 29  2  0  0  0  0
 27 30  1  0  0  0  0
 28 31  2  0  0  0  0
 30 32  2  0  0  0  0
 31 33  1  0  0  0  0
 32 34  1  0  0  0  0
 34 35  2  0  0  0  0
 34 36  1  0  0  0  0
 35 37  1  0  0  0  0
 36 38  2  0  0  0  0
 37 39  1  0  0  0  0
 37 40  2  0  0  0  0
 38 41  1  0  0  0  0
 11 13  1  0  0  0  0
 13 17  1  0  0  0  0
 15 18  1  0  0  0  0
 24 27  1  0  0  0  0
 29 31  1  0  0  0  0
 38 40  1  0  0  0  0
M  END
>  <MolRegNo>
2295028

>  <m>
=

>  <Value>
159.36

>  <Unit>
nM

>  <Type>
Ki

>  <pValue>
6.8

>  <Ligand Efficiency>
0.23

>  <Binding Efficiency>
11.87

>  <Surface Efficiency>
6

>  <Assay Index>
1182125

>  <Assay Category>


>  <Assay Organism>
Homo sapiens

>  <Target ID>
19

>  <Target Name>
Estrogen receptor alpha

>  <Target Organism>
Homo sapiens

>  <Target Description>
Target is a single protein chain

>  <Sequence Accession>
P03372

>  <Reference>
J Med Chem 61 (18), 8155-8173 (2018)

>  <Pubmed ID>
30053783

>  <DOI>
10.1021/acs.jmedchem.8b00224

$$$$
2283322
Actelion Java MolfileCreator 1.0

 41 46  0  0  0  0  0  0  0  0999 V2000
    0.0000   -0.0000   -0.0000 Cl  0  0  0  0  0  0  0  0  0  0  0  0
   -1.3851   -0.7933   -0.0000 C   0  0  0  0  0  0  0  0  0  0  0  0
   -1.3851   -2.3672   -0.0000 C   0  0  0  0  0  0  0  0  0  0  0  0
   -2.7953   -0.0000   -0.0000 C   0  0  0  0  0  0  0  0  0  0  0  0
   -2.7701   -3.1605   -0.0000 C   0  0  0  0  0  0  0  0  0  0  0  0
   -4.1678   -0.7933   -0.0000 C   0  0  0  0  0  0  0  0  0  0  0  0
   -4.1678   -2.3546   -0.0000 C   0  0  0  0  0  0  0  0  0  0  0  0
   -5.5528   -3.1479   -0.0000 O   0  0  0  0  0  0  0  0  0  0  0  0
   -6.9505   -2.3546   -0.0000 S   0  0  0  0  0  0  0  0  0  0  0  0
   -7.7690   -0.9570   -0.0000 O   0  0  0  0  0  0  0  0  0  0  0  0
   -6.1698   -0.9570   -0.0000 O   0  0  0  0  0  0  0  0  0  0  0  0
   -8.3356   -3.1479   -0.0000 C   0  0  0  0  0  0  0  0  0  0  0  0
   -9.7584   -2.3168   -0.0000 C   0  0  0  0  0  0  0  0  0  0  0  0
   -8.8644   -4.2433   -0.0000 C   0  0  0  0  0  0  0  0  0  0  0  0
  -10.0480   -0.8562   -0.0000 O   0  0  0  0  0  0  0  0  0  0  0  0
  -10.9042   -3.0975   -0.0000 C   0  0  0  0  0  0  0  0  0  0  0  0
  -10.1739   -3.5760   -0.0000 C   0  0  0  0  0  0  0  0  0  0  0  0
  -12.0752   -2.4176   -0.0000 C   0  0  0  0  0  0  0  0  0  0  0  0
  -11.5590   -4.2433   -0.0000 C   0  0  0  0  0  0  0  0  0  0  0  0
  -12.0878   -1.0703   -0.0000 C   0  0  0  0  0  0  0  0  0  0  0  0
  -13.2337   -3.0723   -0.0000 C   0  0  0  0  0  0  0  0  0  0  0  0
  -12.9441   -5.0366   -0.0000 C   0  0  0  0  0  0  0  0  0  0  0  0
  -13.2588   -0.3903   -0.0000 C   0  0  0  0  0  0  0  0  0  0  0  0
  -14.4047   -2.3924   -0.0000 C   0  0  0  0  0  0  0  0  0  0  0  0
  -12.9566   -6.6231   -0.0000 C   0  0  0  0  0  0  0  0  0  0  0  0
  -14.3291   -4.2307   -0.0000 C   0  0  0  0  0  0  0  0  0  0  0  0
  -14.4299   -1.0451   -0.0000 C   0  0  0  0  0  0  0  0  0  0  0  0
  -14.3543   -7.4038   -0.0000 C   0  0  0  0  0  0  0  0  0  0  0  0
  -15.7142   -5.0114   -0.0000 C   0  0  0  0  0  0  0  0  0  0  0  0
  -15.6009   -0.3652   -0.0000 C   0  0  0  0  0  0  0  0  0  0  0  0
  -15.7394   -6.5979   -0.0000 C   0  0  0  0  0  0  0  0  0  0  0  0
  -15.6135    0.9821   -0.0000 C   0  0  0  0  0  0  0  0  0  0  0  0
  -17.1244   -7.3786   -0.0000 O   0  0  0  0  0  0  0  0  0  0  0  0
  -16.7845    1.6621   -0.0000 C   0  0  0  0  0  0  0  0  0  0  0  0
  -16.7971    3.0220   -0.0000 C   0  0  0  0  0  0  0  0  0  0  0  0
  -17.9555    1.0073   -0.0000 C   0  0  0  0  0  0  0  0  0  0  0  0
  -17.9681    3.7019   -0.0000 C   0  0  0  0  0  0  0  0  0  0  0  0
  -19.1265    1.6873   -0.0000 C   0  0  0  0  0  0  0  0  0  0  0  0
  -17.9807    5.0492   -0.0000 O   0  0  0  0  0  0  0  0  0  0  0  0
  -19.1391    3.0471   -0.0000 C   0  0  0  0  0  0  0  0  0  0  0  0
  -20.2975    1.0199   -0.0000 O   0  0  0  0  0  0  0  0  0  0  0  0
  1  2  1  0  0  0  0
  2  3  2  0  0  0  0
  2  4  1  0  0  0  0
  3  5  1  0  0  0  0
  4  6  2  0  0  0  0
  5  7  2  0  0  0  0
  7  8  1  0  0  0  0
  8  9  1  0  0  0  0
  9 10  2  0  0  0  0
  9 11  2  0  0  0  0
  9 12  1  0  0  0  0
 12 13  1  0  0  0  0
 12 14  1  0  0  0  0
 13 15  1  0  0  0  0
 13 16  1  0  0  0  0
 14 17  1  0  0  0  0
 16 18  1  0  0  0  0
 16 19  2  0  0  0  0
 18 20  2  0  0  0  0
 18 21  1  0  0  0  0
 19 22  1  0  0  0  0
 20 23  1  0  0  0  0
 21 24  2  0  0  0  0
 22 25  2  0  0  0  0
 22 26  1  0  0  0  0
 23 27  2  0  0  0  0
 25 28  1  0  0  0  0
 26 29  2  0  0  0  0
 27 30  1  0  0  0  0
 28 31  2  0  0  0  0
 30 32  2  0  0  0  0
 31 33  1  0  0  0  0
 32 34  1  0  0  0  0
 34 35  2  0  0  0  0
 34 36  1  0  0  0  0
 35 37  1  0  0  0  0
 36 38  2  0  0  0  0
 37 39  1  0  0  0  0
 37 40  2  0  0  0  0
 38 41  1  0  0  0  0
  6  7  1  0  0  0  0
 15 17  1  0  0  0  0
 17 19  1  0  0  0  0
 24 27  1  0  0  0  0
 29 31  1  0  0  0  0
 38 40  1  0  0  0  0
M  END
>  <MolRegNo>
2283322

>  <m>
=

>  <Value>
72.71

>  <Unit>
nM

>  <Type>
Ki

>  <pValue>
7.14

>  <Ligand Efficiency>
0.24

>  <Binding Efficiency>
12.12

>  <Surface Efficiency>
6.3

>  <Assay Index>
1182125

>  <Assay Category>


>  <Assay Organism>
Homo sapiens

>  <Target ID>
19

>  <Target Name>
Estrogen receptor alpha

>  <Target Organism>
Homo sapiens

>  <Target Description>
Target is a single protein chain

>  <Sequence Accession>
P03372

>  <Reference>
J Med Chem 61 (18), 8155-8173 (2018)

>  <Pubmed ID>
30053783

>  <DOI>
10.1021/acs.jmedchem.8b00224

$$$$
2290598
Actelion Java MolfileCreator 1.0

 41 46  0  0  0  0  0  0  0  0999 V2000
    0.0000   -0.0000   -0.0000 Cl  0  0  0  0  0  0  0  0  0  0  0  0
   -0.0252    1.5980   -0.0000 C   0  0  0  0  0  0  0  0  0  0  0  0
   -1.4218    2.4033   -0.0000 C   0  0  0  0  0  0  0  0  0  0  0  0
    1.3338    2.4159   -0.0000 C   0  0  0  0  0  0  0  0  0  0  0  0
   -2.8059    1.6106   -0.0000 O   0  0  0  0  0  0  0  0  0  0  0  0
   -1.4470    4.0013   -0.0000 C   0  0  0  0  0  0  0  0  0  0  0  0
    1.3086    4.0139   -0.0000 C   0  0  0  0  0  0  0  0  0  0  0  0
   -4.2026    2.4033   -0.0000 S   0  0  0  0  0  0  0  0  0  0  0  0
   -0.1007    4.8191   -0.0000 C   0  0  0  0  0  0  0  0  0  0  0  0
   -5.0205    3.7999   -0.0000 O   0  0  0  0  0  0  0  0  0  0  0  0
   -3.4225    3.7999   -0.0000 O   0  0  0  0  0  0  0  0  0  0  0  0
   -5.5867    1.6106   -0.0000 C   0  0  0  0  0  0  0  0  0  0  0  0
   -7.0085    2.4410   -0.0000 C   0  0  0  0  0  0  0  0  0  0  0  0
   -6.1151    0.5159   -0.0000 C   0  0  0  0  0  0  0  0  0  0  0  0
   -7.2979    3.9006   -0.0000 O   0  0  0  0  0  0  0  0  0  0  0  0
   -8.1535    1.6609   -0.0000 C   0  0  0  0  0  0  0  0  0  0  0  0
   -7.4237    1.1828   -0.0000 C   0  0  0  0  0  0  0  0  0  0  0  0
   -9.3237    2.3404   -0.0000 C   0  0  0  0  0  0  0  0  0  0  0  0
   -8.8078    0.5159   -0.0000 C   0  0  0  0  0  0  0  0  0  0  0  0
   -9.3363    3.6867   -0.0000 C   0  0  0  0  0  0  0  0  0  0  0  0
  -10.4813    1.6861   -0.0000 C   0  0  0  0  0  0  0  0  0  0  0  0
  -10.1919   -0.2642   -0.0000 C   0  0  0  0  0  0  0  0  0  0  0  0
  -10.5065    4.3662   -0.0000 C   0  0  0  0  0  0  0  0  0  0  0  0
  -11.6515    2.3655   -0.0000 C   0  0  0  0  0  0  0  0  0  0  0  0
  -10.2045   -1.8496   -0.0000 C   0  0  0  0  0  0  0  0  0  0  0  0
  -11.5760    0.5411   -0.0000 C   0  0  0  0  0  0  0  0  0  0  0  0
  -11.6767    3.7119   -0.0000 C   0  0  0  0  0  0  0  0  0  0  0  0
  -11.6012   -2.6298   -0.0000 C   0  0  0  0  0  0  0  0  0  0  0  0
  -12.9601   -0.2391   -0.0000 C   0  0  0  0  0  0  0  0  0  0  0  0
  -12.8468    4.3913   -0.0000 C   0  0  0  0  0  0  0  0  0  0  0  0
  -12.9853   -1.8245   -0.0000 C   0  0  0  0  0  0  0  0  0  0  0  0
  -12.8594    5.7377   -0.0000 C   0  0  0  0  0  0  0  0  0  0  0  0
  -14.3693   -2.6046   -0.0000 O   0  0  0  0  0  0  0  0  0  0  0  0
  -14.0296    6.4171   -0.0000 C   0  0  0  0  0  0  0  0  0  0  0  0
  -14.0422    7.7761   -0.0000 C   0  0  0  0  0  0  0  0  0  0  0  0
  -15.1998    5.7628   -0.0000 C   0  0  0  0  0  0  0  0  0  0  0  0
  -15.2124    8.4555   -0.0000 C   0  0  0  0  0  0  0  0  0  0  0  0
  -16.3700    6.4423   -0.0000 C   0  0  0  0  0  0  0  0  0  0  0  0
  -15.2250    9.8019   -0.0000 O   0  0  0  0  0  0  0  0  0  0  0  0
  -16.3826    7.8012   -0.0000 C   0  0  0  0  0  0  0  0  0  0  0  0
  -17.5402    5.7754   -0.0000 O   0  0  0  0  0  0  0  0  0  0  0  0
  1  2  1  0  0  0  0
  2  3  2  0  0  0  0
  2  4  1  0  0  0  0
  3  5  1  0  0  0  0
  3  6  1  0  0  0  0
  4  7  2  0  0  0  0
  5  8  1  0  0  0  0
  6  9  2  0  0  0  0
  8 10  2  0  0  0  0
  8 11  2  0  0  0  0
  8 12  1  0  0  0  0
 12 13  1  0  0  0  0
 12 14  1  0  0  0  0
 13 15  1  0  0  0  0
 13 16  1  0  0  0  0
 14 17  1  0  0  0  0
 16 18  1  0  0  0  0
 16 19  2  0  0  0  0
 18 20  2  0  0  0  0
 18 21  1  0  0  0  0
 19 22  1  0  0  0  0
 20 23  1  0  0  0  0
 21 24  2  0  0  0  0
 22 25  2  0  0  0  0
 22 26  1  0  0  0  0
 23 27  2  0  0  0  0
 25 28  1  0  0  0  0
 26 29  2  0  0  0  0
 27 30  1  0  0  0  0
 28 31  2  0  0  0  0
 30 32  2  0  0  0  0
 31 33  1  0  0  0  0
 32 34  1  0  0  0  0
 34 35  2  0  0  0  0
 34 36  1  0  0  0  0
 35 37  1  0  0  0  0
 36 38  2  0  0  0  0
 37 39  1  0  0  0  0
 37 40  2  0  0  0  0
 38 41  1  0  0  0  0
  7  9  1  0  0  0  0
 15 17  1  0  0  0  0
 17 19  1  0  0  0  0
 24 27  1  0  0  0  0
 29 31  1  0  0  0  0
 38 40  1  0  0  0  0
M  END
>  <MolRegNo>
2290598

>  <m>
=

>  <Value>
107.38

>  <Unit>
nM

>  <Type>
Ki

>  <pValue>
6.97

>  <Ligand Efficiency>
0.23

>  <Binding Efficiency>
11.83

>  <Surface Efficiency>
6.15

>  <Assay Index>
1182125

>  <Assay Category>


>  <Assay Organism>
Homo sapiens

>  <Target ID>
19

>  <Target Name>
Estrogen receptor alpha

>  <Target Organism>
Homo sapiens

>  <Target Description>
Target is a single protein chain

>  <Sequence Accession>
P03372

>  <Reference>
J Med Chem 61 (18), 8155-8173 (2018)

>  <Pubmed ID>
30053783

>  <DOI>
10.1021/acs.jmedchem.8b00224

$$$$
2295557
Actelion Java MolfileCreator 1.0

 41 46  0  0  0  0  0  0  0  0999 V2000
    0.0000   -0.0000   -0.0000 S   0  0  0  0  0  0  0  0  0  0  0  0
   -0.8194    1.3993   -0.0000 O   0  0  0  0  0  0  0  0  0  0  0  0
    0.7816    1.3993   -0.0000 O   0  0  0  0  0  0  0  0  0  0  0  0
    1.3741   -0.7690   -0.0000 O   0  0  0  0  0  0  0  0  0  0  0  0
   -1.3867   -0.7942   -0.0000 C   0  0  0  0  0  0  0  0  0  0  0  0
    2.7356    0.0504   -0.0000 C   0  0  0  0  0  0  0  0  0  0  0  0
   -2.8113    0.0378   -0.0000 C   0  0  0  0  0  0  0  0  0  0  0  0
   -1.9162   -1.8910   -0.0000 C   0  0  0  0  0  0  0  0  0  0  0  0
    4.1097   -0.7312   -0.0000 C   0  0  0  0  0  0  0  0  0  0  0  0
    2.7104    1.6515   -0.0000 C   0  0  0  0  0  0  0  0  0  0  0  0
   -3.1012    1.5002   -0.0000 O   0  0  0  0  0  0  0  0  0  0  0  0
   -3.9585   -0.7438   -0.0000 C   0  0  0  0  0  0  0  0  0  0  0  0
   -3.2273   -1.2228   -0.0000 C   0  0  0  0  0  0  0  0  0  0  0  0
    5.4712    0.0882   -0.0000 C   0  0  0  0  0  0  0  0  0  0  0  0
    4.1097   -2.3070   -0.0000 C   0  0  0  0  0  0  0  0  0  0  0  0
    4.0593    2.4709   -0.0000 C   0  0  0  0  0  0  0  0  0  0  0  0
   -5.1309   -0.0630   -0.0000 C   0  0  0  0  0  0  0  0  0  0  0  0
   -4.6140   -1.8910   -0.0000 C   0  0  0  0  0  0  0  0  0  0  0  0
    5.4460    1.6893   -0.0000 C   0  0  0  0  0  0  0  0  0  0  0  0
   -5.1435    1.2859   -0.0000 C   0  0  0  0  0  0  0  0  0  0  0  0
   -6.2907   -0.7186   -0.0000 C   0  0  0  0  0  0  0  0  0  0  0  0
   -6.0007   -2.6852   -0.0000 C   0  0  0  0  0  0  0  0  0  0  0  0
   -6.3159    1.9666   -0.0000 C   0  0  0  0  0  0  0  0  0  0  0  0
   -7.4631   -0.0378   -0.0000 C   0  0  0  0  0  0  0  0  0  0  0  0
   -6.0133   -4.2736   -0.0000 C   0  0  0  0  0  0  0  0  0  0  0  0
   -7.3874   -1.8784   -0.0000 C   0  0  0  0  0  0  0  0  0  0  0  0
   -7.4883    1.3111   -0.0000 C   0  0  0  0  0  0  0  0  0  0  0  0
   -7.4127   -5.0552   -0.0000 C   0  0  0  0  0  0  0  0  0  0  0  0
   -8.7742   -2.6600   -0.0000 C   0  0  0  0  0  0  0  0  0  0  0  0
   -8.6607    1.9918   -0.0000 C   0  0  0  0  0  0  0  0  0  0  0  0
   -8.7994   -4.2484   -0.0000 C   0  0  0  0  0  0  0  0  0  0  0  0
   -8.6733    3.3407   -0.0000 C   0  0  0  0  0  0  0  0  0  0  0  0
  -10.1861   -5.0300   -0.0000 O   0  0  0  0  0  0  0  0  0  0  0  0
   -9.8457    4.0215   -0.0000 C   0  0  0  0  0  0  0  0  0  0  0  0
   -9.8583    5.3830   -0.0000 C   0  0  0  0  0  0  0  0  0  0  0  0
  -11.0181    3.3659   -0.0000 C   0  0  0  0  0  0  0  0  0  0  0  0
  -11.0307    6.0638   -0.0000 C   0  0  0  0  0  0  0  0  0  0  0  0
  -12.1905    4.0467   -0.0000 C   0  0  0  0  0  0  0  0  0  0  0  0
  -11.0433    7.4127   -0.0000 O   0  0  0  0  0  0  0  0  0  0  0  0
  -12.2031    5.4082   -0.0000 C   0  0  0  0  0  0  0  0  0  0  0  0
  -13.3629    3.3786   -0.0000 O   0  0  0  0  0  0  0  0  0  0  0  0
  1  2  2  0  0  0  0
  1  3  2  0  0  0  0
  1  4  1  0  0  0  0
  1  5  1  0  0  0  0
  4  6  1  0  0  0  0
  5  7  1  0  0  0  0
  5  8  1  0  0  0  0
  6  9  2  0  0  0  0
  6 10  1  0  0  0  0
  7 11  1  0  0  0  0
  7 12  1  0  0  0  0
  8 13  1  0  0  0  0
  9 14  1  0  0  0  0
  9 15  1  0  0  0  0
 10 16  2  0  0  0  0
 12 17  1  0  0  0  0
 12 18  2  0  0  0  0
 14 19  2  0  0  0  0
 17 20  2  0  0  0  0
 17 21  1  0  0  0  0
 18 22  1  0  0  0  0
 20 23  1  0  0  0  0
 21 24  2  0  0  0  0
 22 25  2  0  0  0  0
 22 26  1  0  0  0  0
 23 27  2  0  0  0  0
 25 28  1  0  0  0  0
 26 29  2  0  0  0  0
 27 30  1  0  0  0  0
 28 31  2  0  0  0  0
 30 32  2  0  0  0  0
 31 33  1  0  0  0  0
 32 34  1  0  0  0  0
 34 35  2  0  0  0  0
 34 36  1  0  0  0  0
 35 37  1  0  0  0  0
 36 38  2  0  0  0  0
 37 39  1  0  0  0  0
 37 40  2  0  0  0  0
 38 41  1  0  0  0  0
 11 13  1  0  0  0  0
 13 18  1  0  0  0  0
 16 19  1  0  0  0  0
 24 27  1  0  0  0  0
 29 31  1  0  0  0  0
 38 40  1  0  0  0  0
M  END
>  <MolRegNo>
2295557

>  <m>
=

>  <Value>
52.01

>  <Unit>
nM

>  <Type>
Ki

>  <pValue>
7.28

>  <Ligand Efficiency>
0.24

>  <Binding Efficiency>
12.81

>  <Surface Efficiency>
6.43

>  <Assay Index>
1182125

>  <Assay Category>


>  <Assay Organism>
Homo sapiens

>  <Target ID>
19

>  <Target Name>
Estrogen receptor alpha

>  <Target Organism>
Homo sapiens

>  <Target Description>
Target is a single protein chain

>  <Sequence Accession>
P03372

>  <Reference>
J Med Chem 61 (18), 8155-8173 (2018)

>  <Pubmed ID>
30053783

>  <DOI>
10.1021/acs.jmedchem.8b00224

$$$$
2287178
Actelion Java MolfileCreator 1.0

 44 49  0  0  0  0  0  0  0  0999 V2000
    0.0000   -0.0000   -0.0000 S   0  0  0  0  0  0  0  0  0  0  0  0
   -0.8168    1.3948   -0.0000 O   0  0  0  0  0  0  0  0  0  0  0  0
    0.7791    1.3948   -0.0000 O   0  0  0  0  0  0  0  0  0  0  0  0
    1.3697   -0.7665   -0.0000 O   0  0  0  0  0  0  0  0  0  0  0  0
   -1.3823   -0.7917   -0.0000 C   0  0  0  0  0  0  0  0  0  0  0  0
    2.7268    0.0503   -0.0000 C   0  0  0  0  0  0  0  0  0  0  0  0
   -2.8022    0.0377   -0.0000 C   0  0  0  0  0  0  0  0  0  0  0  0
   -1.9100   -1.8849   -0.0000 C   0  0  0  0  0  0  0  0  0  0  0  0
    4.0965   -0.7288   -0.0000 C   0  0  0  0  0  0  0  0  0  0  0  0
    2.7017    1.6461   -0.0000 C   0  0  0  0  0  0  0  0  0  0  0  0
   -3.0912    1.4953   -0.0000 O   0  0  0  0  0  0  0  0  0  0  0  0
   -3.9457   -0.7414   -0.0000 C   0  0  0  0  0  0  0  0  0  0  0  0
   -3.2169   -1.2189   -0.0000 C   0  0  0  0  0  0  0  0  0  0  0  0
    5.4536    0.0880   -0.0000 C   0  0  0  0  0  0  0  0  0  0  0  0
    4.0965   -2.2996   -0.0000 C   0  0  0  0  0  0  0  0  0  0  0  0
    4.0462    2.4629   -0.0000 C   0  0  0  0  0  0  0  0  0  0  0  0
   -5.1143   -0.0628   -0.0000 C   0  0  0  0  0  0  0  0  0  0  0  0
   -4.5991   -1.8849   -0.0000 C   0  0  0  0  0  0  0  0  0  0  0  0
    5.4285    1.6838   -0.0000 C   0  0  0  0  0  0  0  0  0  0  0  0
    5.6672   -2.2870   -0.0000 F   0  0  0  0  0  0  0  0  0  0  0  0
    4.8756   -3.6567   -0.0000 F   0  0  0  0  0  0  0  0  0  0  0  0
    2.7142   -3.0912   -0.0000 F   0  0  0  0  0  0  0  0  0  0  0  0
   -5.1269    1.2817   -0.0000 C   0  0  0  0  0  0  0  0  0  0  0  0
   -6.2704   -0.7163   -0.0000 C   0  0  0  0  0  0  0  0  0  0  0  0
   -5.9814   -2.6640   -0.0000 C   0  0  0  0  0  0  0  0  0  0  0  0
   -6.2955    1.9603   -0.0000 C   0  0  0  0  0  0  0  0  0  0  0  0
   -7.4390   -0.0377   -0.0000 C   0  0  0  0  0  0  0  0  0  0  0  0
   -5.9939   -4.2473   -0.0000 C   0  0  0  0  0  0  0  0  0  0  0  0
   -7.3636   -1.8598   -0.0000 C   0  0  0  0  0  0  0  0  0  0  0  0
   -7.4642    1.3069   -0.0000 C   0  0  0  0  0  0  0  0  0  0  0  0
   -7.3888   -5.0264   -0.0000 C   0  0  0  0  0  0  0  0  0  0  0  0
   -8.7459   -2.6388   -0.0000 C   0  0  0  0  0  0  0  0  0  0  0  0
   -8.6328    1.9854   -0.0000 C   0  0  0  0  0  0  0  0  0  0  0  0
   -8.7710   -4.2222   -0.0000 C   0  0  0  0  0  0  0  0  0  0  0  0
   -8.6454    3.3300   -0.0000 C   0  0  0  0  0  0  0  0  0  0  0  0
  -10.1533   -5.0012   -0.0000 O   0  0  0  0  0  0  0  0  0  0  0  0
   -9.8140    4.0085   -0.0000 C   0  0  0  0  0  0  0  0  0  0  0  0
   -9.8266    5.3657   -0.0000 C   0  0  0  0  0  0  0  0  0  0  0  0
  -10.9826    3.3551   -0.0000 C   0  0  0  0  0  0  0  0  0  0  0  0
  -10.9952    6.0442   -0.0000 C   0  0  0  0  0  0  0  0  0  0  0  0
  -12.1513    4.0337   -0.0000 C   0  0  0  0  0  0  0  0  0  0  0  0
  -11.0078    7.3888   -0.0000 O   0  0  0  0  0  0  0  0  0  0  0  0
  -12.1638    5.3908   -0.0000 C   0  0  0  0  0  0  0  0  0  0  0  0
  -13.3199    3.3677   -0.0000 O   0  0  0  0  0  0  0  0  0  0  0  0
  1  2  2  0  0  0  0
  1  3  2  0  0  0  0
  1  4  1  0  0  0  0
  1  5  1  0  0  0  0
  4  6  1  0  0  0  0
  5  7  1  0  0  0  0
  5  8  1  0  0  0  0
  6  9  2  0  0  0  0
  6 10  1  0  0  0  0
  7 11  1  0  0  0  0
  7 12  1  0  0  0  0
  8 13  1  0  0  0  0
  9 14  1  0  0  0  0
  9 15  1  0  0  0  0
 10 16  2  0  0  0  0
 12 17  1  0  0  0  0
 12 18  2  0  0  0  0
 14 19  2  0  0  0  0
 15 20  1  0  0  0  0
 15 21  1  0  0  0  0
 15 22  1  0  0  0  0
 17 23  2  0  0  0  0
 17 24  1  0  0  0  0
 18 25  1  0  0  0  0
 23 26  1  0  0  0  0
 24 27  2  0  0  0  0
 25 28  2  0  0  0  0
 25 29  1  0  0  0  0
 26 30  2  0  0  0  0
 28 31  1  0  0  0  0
 29 32  2  0  0  0  0
 30 33  1  0  0  0  0
 31 34  2  0  0  0  0
 33 35  2  0  0  0  0
 34 36  1  0  0  0  0
 35 37  1  0  0  0  0
 37 38  2  0  0  0  0
 37 39  1  0  0  0  0
 38 40  1  0  0  0  0
 39 41  2  0  0  0  0
 40 42  1  0  0  0  0
 40 43  2  0  0  0  0
 41 44  1  0  0  0  0
 11 13  1  0  0  0  0
 13 18  1  0  0  0  0
 16 19  1  0  0  0  0
 27 30  1  0  0  0  0
 32 34  1  0  0  0  0
 41 43  1  0  0  0  0
M  END
>  <MolRegNo>
2287178

>  <m>
=

>  <Value>
498.57

>  <Unit>
nM

>  <Type>
Ki

>  <pValue>
6.3

>  <Ligand Efficiency>
0.2

>  <Binding Efficiency>
10.12

>  <Surface Efficiency>
5.56

>  <Assay Index>
1182125

>  <Assay Category>


>  <Assay Organism>
Homo sapiens

>  <Target ID>
19

>  <Target Name>
Estrogen receptor alpha

>  <Target Organism>
Homo sapiens

>  <Target Description>
Target is a single protein chain

>  <Sequence Accession>
P03372

>  <Reference>
J Med Chem 61 (18), 8155-8173 (2018)

>  <Pubmed ID>
30053783

>  <DOI>
10.1021/acs.jmedchem.8b00224

$$$$
2292099
Actelion Java MolfileCreator 1.0

 44 49  0  0  0  0  0  0  0  0999 V2000
    0.0000   -0.0000   -0.0000 S   0  0  0  0  0  0  0  0  0  0  0  0
   -0.8172    1.3955   -0.0000 O   0  0  0  0  0  0  0  0  0  0  0  0
    0.7795    1.3955   -0.0000 O   0  0  0  0  0  0  0  0  0  0  0  0
    1.3704   -0.7669   -0.0000 O   0  0  0  0  0  0  0  0  0  0  0  0
   -1.3829   -0.7920   -0.0000 C   0  0  0  0  0  0  0  0  0  0  0  0
    2.7281    0.0503   -0.0000 C   0  0  0  0  0  0  0  0  0  0  0  0
   -2.7910    0.0377   -0.0000 C   0  0  0  0  0  0  0  0  0  0  0  0
   -1.9110   -1.8858   -0.0000 C   0  0  0  0  0  0  0  0  0  0  0  0
    4.0985   -0.7292   -0.0000 C   0  0  0  0  0  0  0  0  0  0  0  0
    2.7030    1.6469   -0.0000 C   0  0  0  0  0  0  0  0  0  0  0  0
   -3.0802    1.4961   -0.0000 O   0  0  0  0  0  0  0  0  0  0  0  0
   -3.9351   -0.7418   -0.0000 C   0  0  0  0  0  0  0  0  0  0  0  0
   -3.2184   -1.2195   -0.0000 C   0  0  0  0  0  0  0  0  0  0  0  0
    5.4563    0.0880   -0.0000 C   0  0  0  0  0  0  0  0  0  0  0  0
    4.0482    2.4641   -0.0000 C   0  0  0  0  0  0  0  0  0  0  0  0
   -5.1043   -0.0629   -0.0000 C   0  0  0  0  0  0  0  0  0  0  0  0
   -4.5888   -1.8858   -0.0000 C   0  0  0  0  0  0  0  0  0  0  0  0
    5.4311    1.6847   -0.0000 C   0  0  0  0  0  0  0  0  0  0  0  0
    6.8141   -0.6789   -0.0000 C   0  0  0  0  0  0  0  0  0  0  0  0
   -5.1168    1.2824   -0.0000 C   0  0  0  0  0  0  0  0  0  0  0  0
   -6.2609   -0.7166   -0.0000 C   0  0  0  0  0  0  0  0  0  0  0  0
   -5.9717   -2.6779   -0.0000 C   0  0  0  0  0  0  0  0  0  0  0  0
    7.5810   -2.0367   -0.0000 F   0  0  0  0  0  0  0  0  0  0  0  0
    6.0094   -2.0367   -0.0000 F   0  0  0  0  0  0  0  0  0  0  0  0
    8.1718    0.1383   -0.0000 F   0  0  0  0  0  0  0  0  0  0  0  0
   -6.2860    1.9612   -0.0000 C   0  0  0  0  0  0  0  0  0  0  0  0
   -7.4301   -0.0377   -0.0000 C   0  0  0  0  0  0  0  0  0  0  0  0
   -5.9843   -4.2619   -0.0000 C   0  0  0  0  0  0  0  0  0  0  0  0
   -7.3547   -1.8732   -0.0000 C   0  0  0  0  0  0  0  0  0  0  0  0
   -7.4552    1.3075   -0.0000 C   0  0  0  0  0  0  0  0  0  0  0  0
   -7.3798   -5.0414   -0.0000 C   0  0  0  0  0  0  0  0  0  0  0  0
   -8.7376   -2.6527   -0.0000 C   0  0  0  0  0  0  0  0  0  0  0  0
   -8.6244    1.9864   -0.0000 C   0  0  0  0  0  0  0  0  0  0  0  0
   -8.7627   -4.2368   -0.0000 C   0  0  0  0  0  0  0  0  0  0  0  0
   -8.6370    3.3316   -0.0000 C   0  0  0  0  0  0  0  0  0  0  0  0
  -10.1457   -5.0163   -0.0000 O   0  0  0  0  0  0  0  0  0  0  0  0
   -9.8062    4.0105   -0.0000 C   0  0  0  0  0  0  0  0  0  0  0  0
   -9.8188    5.3683   -0.0000 C   0  0  0  0  0  0  0  0  0  0  0  0
  -10.9754    3.3567   -0.0000 C   0  0  0  0  0  0  0  0  0  0  0  0
  -10.9880    6.0472   -0.0000 C   0  0  0  0  0  0  0  0  0  0  0  0
  -12.1446    4.0356   -0.0000 C   0  0  0  0  0  0  0  0  0  0  0  0
  -11.0006    7.3924   -0.0000 O   0  0  0  0  0  0  0  0  0  0  0  0
  -12.1572    5.3934   -0.0000 C   0  0  0  0  0  0  0  0  0  0  0  0
  -13.3138    3.3693   -0.0000 O   0  0  0  0  0  0  0  0  0  0  0  0
  1  2  2  0  0  0  0
  1  3  2  0  0  0  0
  1  4  1  0  0  0  0
  1  5  1  0  0  0  0
  4  6  1  0  0  0  0
  5  7  1  0  0  0  0
  5  8  1  0  0  0  0
  6  9  2  0  0  0  0
  6 10  1  0  0  0  0
  7 11  1  0  0  0  0
  7 12  1  0  0  0  0
  8 13  1  0  0  0  0
  9 14  1  0  0  0  0
 10 15  2  0  0  0  0
 12 16  1  0  0  0  0
 12 17  2  0  0  0  0
 14 18  2  0  0  0  0
 14 19  1  0  0  0  0
 16 20  2  0  0  0  0
 16 21  1  0  0  0  0
 17 22  1  0  0  0  0
 19 23  1  0  0  0  0
 19 24  1  0  0  0  0
 19 25  1  0  0  0  0
 20 26  1  0  0  0  0
 21 27  2  0  0  0  0
 22 28  2  0  0  0  0
 22 29  1  0  0  0  0
 26 30  2  0  0  0  0
 28 31  1  0  0  0  0
 29 32  2  0  0  0  0
 30 33  1  0  0  0  0
 31 34  2  0  0  0  0
 33 35  2  0  0  0  0
 34 36  1  0  0  0  0
 35 37  1  0  0  0  0
 37 38  2  0  0  0  0
 37 39  1  0  0  0  0
 38 40  1  0  0  0  0
 39 41  2  0  0  0  0
 40 42  1  0  0  0  0
 40 43  2  0  0  0  0
 41 44  1  0  0  0  0
 11 13  1  0  0  0  0
 13 17  1  0  0  0  0
 15 18  1  0  0  0  0
 27 30  1  0  0  0  0
 32 34  1  0  0  0  0
 41 43  1  0  0  0  0
M  END
>  <MolRegNo>
2292099

>  <m>
=

>  <Value>
51.32

>  <Unit>
nM

>  <Type>
Ki

>  <pValue>
7.29

>  <Ligand Efficiency>
0.23

>  <Binding Efficiency>
11.71

>  <Surface Efficiency>
6.43

>  <Assay Index>
1182125

>  <Assay Category>


>  <Assay Organism>
Homo sapiens

>  <Target ID>
19

>  <Target Name>
Estrogen receptor alpha

>  <Target Organism>
Homo sapiens

>  <Target Description>
Target is a single protein chain

>  <Sequence Accession>
P03372

>  <Reference>
J Med Chem 61 (18), 8155-8173 (2018)

>  <Pubmed ID>
30053783

>  <DOI>
10.1021/acs.jmedchem.8b00224

$$$$
2288393
Actelion Java MolfileCreator 1.0

 46 52  0  0  0  0  0  0  0  0999 V2000
    0.0000   -0.0000   -0.0000 S   0  0  0  0  0  0  0  0  0  0  0  0
   -0.8139    1.3898   -0.0000 O   0  0  0  0  0  0  0  0  0  0  0  0
    0.7763    1.3898   -0.0000 O   0  0  0  0  0  0  0  0  0  0  0  0
    1.3648   -0.7638   -0.0000 O   0  0  0  0  0  0  0  0  0  0  0  0
   -1.3773   -0.7888   -0.0000 C   0  0  0  0  0  0  0  0  0  0  0  0
    2.7171    0.0501   -0.0000 C   0  0  0  0  0  0  0  0  0  0  0  0
   -2.7922    0.0376   -0.0000 C   0  0  0  0  0  0  0  0  0  0  0  0
   -1.9032   -1.8782   -0.0000 C   0  0  0  0  0  0  0  0  0  0  0  0
    4.0819   -0.7262   -0.0000 C   0  0  0  0  0  0  0  0  0  0  0  0
    2.6920    1.6403   -0.0000 C   0  0  0  0  0  0  0  0  0  0  0  0
   -3.0802    1.4900   -0.0000 O   0  0  0  0  0  0  0  0  0  0  0  0
   -3.9316   -0.7387   -0.0000 C   0  0  0  0  0  0  0  0  0  0  0  0
   -3.2054   -1.2145   -0.0000 C   0  0  0  0  0  0  0  0  0  0  0  0
    5.4341    0.0876   -0.0000 C   0  0  0  0  0  0  0  0  0  0  0  0
    4.0318    2.4541   -0.0000 C   0  0  0  0  0  0  0  0  0  0  0  0
   -5.0961   -0.0626   -0.0000 C   0  0  0  0  0  0  0  0  0  0  0  0
   -4.5827   -1.8782   -0.0000 C   0  0  0  0  0  0  0  0  0  0  0  0
    5.4091    1.6778   -0.0000 C   0  0  0  0  0  0  0  0  0  0  0  0
   -5.1086    1.2771   -0.0000 C   0  0  0  0  0  0  0  0  0  0  0  0
   -6.2480   -0.7137   -0.0000 C   0  0  0  0  0  0  0  0  0  0  0  0
   -5.9600   -2.6670   -0.0000 C   0  0  0  0  0  0  0  0  0  0  0  0
    6.7488    2.4917   -0.0000 C   0  0  0  0  0  0  0  0  0  0  0  0
   -6.2730    1.9533   -0.0000 C   0  0  0  0  0  0  0  0  0  0  0  0
   -7.4125   -0.0376   -0.0000 C   0  0  0  0  0  0  0  0  0  0  0  0
   -5.9725   -4.2446   -0.0000 C   0  0  0  0  0  0  0  0  0  0  0  0
   -7.3373   -1.8656   -0.0000 C   0  0  0  0  0  0  0  0  0  0  0  0
    8.1136    1.7279   -0.0000 C   0  0  0  0  0  0  0  0  0  0  0  0
    6.7238    4.0819   -0.0000 C   0  0  0  0  0  0  0  0  0  0  0  0
   -7.4375    1.3022   -0.0000 C   0  0  0  0  0  0  0  0  0  0  0  0
   -7.3624   -5.0209   -0.0000 C   0  0  0  0  0  0  0  0  0  0  0  0
   -8.7147   -2.6419   -0.0000 C   0  0  0  0  0  0  0  0  0  0  0  0
    9.4659    2.5418   -0.0000 C   0  0  0  0  0  0  0  0  0  0  0  0
    8.0636    4.8957   -0.0000 C   0  0  0  0  0  0  0  0  0  0  0  0
   -8.6020    1.9783   -0.0000 C   0  0  0  0  0  0  0  0  0  0  0  0
   -8.7397   -4.2196   -0.0000 C   0  0  0  0  0  0  0  0  0  0  0  0
    9.4409    4.1319   -0.0000 C   0  0  0  0  0  0  0  0  0  0  0  0
   -8.6145    3.3181   -0.0000 C   0  0  0  0  0  0  0  0  0  0  0  0
  -10.1170   -4.9959   -0.0000 O   0  0  0  0  0  0  0  0  0  0  0  0
   -9.7789    3.9942   -0.0000 C   0  0  0  0  0  0  0  0  0  0  0  0
   -9.7915    5.3465   -0.0000 C   0  0  0  0  0  0  0  0  0  0  0  0
  -10.9434    3.3431   -0.0000 C   0  0  0  0  0  0  0  0  0  0  0  0
  -10.9559    6.0226   -0.0000 C   0  0  0  0  0  0  0  0  0  0  0  0
  -12.1079    4.0193   -0.0000 C   0  0  0  0  0  0  0  0  0  0  0  0
  -10.9684    7.3624   -0.0000 O   0  0  0  0  0  0  0  0  0  0  0  0
  -12.1204    5.3715   -0.0000 C   0  0  0  0  0  0  0  0  0  0  0  0
  -13.2723    3.3556   -0.0000 O   0  0  0  0  0  0  0  0  0  0  0  0
  1  2  2  0  0  0  0
  1  3  2  0  0  0  0
  1  4  1  0  0  0  0
  1  5  1  0  0  0  0
  4  6  1  0  0  0  0
  5  7  1  0  0  0  0
  5  8  1  0  0  0  0
  6  9  2  0  0  0  0
  6 10  1  0  0  0  0
  7 11  1  0  0  0  0
  7 12  1  0  0  0  0
  8 13  1  0  0  0  0
  9 14  1  0  0  0  0
 10 15  2  0  0  0  0
 12 16  1  0  0  0  0
 12 17  2  0  0  0  0
 14 18  2  0  0  0  0
 16 19  2  0  0  0  0
 16 20  1  0  0  0  0
 17 21  1  0  0  0  0
 18 22  1  0  0  0  0
 19 23  1  0  0  0  0
 20 24  2  0  0  0  0
 21 25  2  0  0  0  0
 21 26  1  0  0  0  0
 22 27  2  0  0  0  0
 22 28  1  0  0  0  0
 23 29  2  0  0  0  0
 25 30  1  0  0  0  0
 26 31  2  0  0  0  0
 27 32  1  0  0  0  0
 28 33  2  0  0  0  0
 29 34  1  0  0  0  0
 30 35  2  0  0  0  0
 32 36  2  0  0  0  0
 34 37  2  0  0  0  0
 35 38  1  0  0  0  0
 37 39  1  0  0  0  0
 39 40  2  0  0  0  0
 39 41  1  0  0  0  0
 40 42  1  0  0  0  0
 41 43  2  0  0  0  0
 42 44  1  0  0  0  0
 42 45  2  0  0  0  0
 43 46  1  0  0  0  0
 11 13  1  0  0  0  0
 13 17  1  0  0  0  0
 15 18  1  0  0  0  0
 24 29  1  0  0  0  0
 31 35  1  0  0  0  0
 33 36  1  0  0  0  0
 43 45  1  0  0  0  0
M  END
>  <MolRegNo>
2288393

>  <m>
=

>  <Value>
153.07

>  <Unit>
nM

>  <Type>
Ki

>  <pValue>
6.82

>  <Ligand Efficiency>
0.2

>  <Binding Efficiency>
10.81

>  <Surface Efficiency>
6.02

>  <Assay Index>
1182125

>  <Assay Category>


>  <Assay Organism>
Homo sapiens

>  <Target ID>
19

>  <Target Name>
Estrogen receptor alpha

>  <Target Organism>
Homo sapiens

>  <Target Description>
Target is a single protein chain

>  <Sequence Accession>
P03372

>  <Reference>
J Med Chem 61 (18), 8155-8173 (2018)

>  <Pubmed ID>
30053783

>  <DOI>
10.1021/acs.jmedchem.8b00224

$$$$
2283493
Actelion Java MolfileCreator 1.0

 41 46  0  0  0  0  0  0  0  0999 V2000
    0.0000   -0.0000   -0.0000 Cl  0  0  0  0  0  0  0  0  0  0  0  0
   -1.3964    0.7926   -0.0000 C   0  0  0  0  0  0  0  0  0  0  0  0
   -2.7802   -0.0000   -0.0000 C   0  0  0  0  0  0  0  0  0  0  0  0
   -1.4216    2.3902   -0.0000 C   0  0  0  0  0  0  0  0  0  0  0  0
   -4.1766    0.8051   -0.0000 C   0  0  0  0  0  0  0  0  0  0  0  0
   -2.8306    3.1828   -0.0000 C   0  0  0  0  0  0  0  0  0  0  0  0
   -5.5605    0.0126   -0.0000 O   0  0  0  0  0  0  0  0  0  0  0  0
   -4.2018    2.4028   -0.0000 C   0  0  0  0  0  0  0  0  0  0  0  0
   -6.9569    0.8051   -0.0000 S   0  0  0  0  0  0  0  0  0  0  0  0
   -7.7746    2.2015   -0.0000 O   0  0  0  0  0  0  0  0  0  0  0  0
   -6.1769    2.2015   -0.0000 O   0  0  0  0  0  0  0  0  0  0  0  0
   -8.3407    0.0126   -0.0000 C   0  0  0  0  0  0  0  0  0  0  0  0
   -9.7623    0.8429   -0.0000 C   0  0  0  0  0  0  0  0  0  0  0  0
   -8.8691   -1.0819   -0.0000 C   0  0  0  0  0  0  0  0  0  0  0  0
  -10.0516    2.3022   -0.0000 O   0  0  0  0  0  0  0  0  0  0  0  0
  -10.9071    0.0629   -0.0000 C   0  0  0  0  0  0  0  0  0  0  0  0
  -10.1774   -0.4151   -0.0000 C   0  0  0  0  0  0  0  0  0  0  0  0
  -12.0770    0.7422   -0.0000 C   0  0  0  0  0  0  0  0  0  0  0  0
  -11.5612   -1.0819   -0.0000 C   0  0  0  0  0  0  0  0  0  0  0  0
  -12.0896    2.0883   -0.0000 C   0  0  0  0  0  0  0  0  0  0  0  0
  -13.2344    0.0881   -0.0000 C   0  0  0  0  0  0  0  0  0  0  0  0
  -12.9451   -1.8619   -0.0000 C   0  0  0  0  0  0  0  0  0  0  0  0
  -13.2596    2.7676   -0.0000 C   0  0  0  0  0  0  0  0  0  0  0  0
  -14.4044    0.7674   -0.0000 C   0  0  0  0  0  0  0  0  0  0  0  0
  -12.9576   -3.4470   -0.0000 C   0  0  0  0  0  0  0  0  0  0  0  0
  -14.3289   -1.0567   -0.0000 C   0  0  0  0  0  0  0  0  0  0  0  0
  -14.4295    2.1135   -0.0000 C   0  0  0  0  0  0  0  0  0  0  0  0
  -14.3540   -4.2270   -0.0000 C   0  0  0  0  0  0  0  0  0  0  0  0
  -15.7127   -1.8367   -0.0000 C   0  0  0  0  0  0  0  0  0  0  0  0
  -15.5995    2.7928   -0.0000 C   0  0  0  0  0  0  0  0  0  0  0  0
  -15.7379   -3.4218   -0.0000 C   0  0  0  0  0  0  0  0  0  0  0  0
  -15.6121    4.1389   -0.0000 C   0  0  0  0  0  0  0  0  0  0  0  0
  -17.1217   -4.2018   -0.0000 O   0  0  0  0  0  0  0  0  0  0  0  0
  -16.7820    4.8182   -0.0000 C   0  0  0  0  0  0  0  0  0  0  0  0
  -16.7946    6.1769   -0.0000 C   0  0  0  0  0  0  0  0  0  0  0  0
  -17.9520    4.1641   -0.0000 C   0  0  0  0  0  0  0  0  0  0  0  0
  -17.9646    6.8562   -0.0000 C   0  0  0  0  0  0  0  0  0  0  0  0
  -19.1219    4.8434   -0.0000 C   0  0  0  0  0  0  0  0  0  0  0  0
  -17.9771    8.2023   -0.0000 O   0  0  0  0  0  0  0  0  0  0  0  0
  -19.1345    6.2021   -0.0000 C   0  0  0  0  0  0  0  0  0  0  0  0
  -20.2919    4.1766   -0.0000 O   0  0  0  0  0  0  0  0  0  0  0  0
  1  2  1  0  0  0  0
  2  3  2  0  0  0  0
  2  4  1  0  0  0  0
  3  5  1  0  0  0  0
  4  6  2  0  0  0  0
  5  7  1  0  0  0  0
  5  8  2  0  0  0  0
  7  9  1  0  0  0  0
  9 10  2  0  0  0  0
  9 11  2  0  0  0  0
  9 12  1  0  0  0  0
 12 13  1  0  0  0  0
 12 14  1  0  0  0  0
 13 15  1  0  0  0  0
 13 16  1  0  0  0  0
 14 17  1  0  0  0  0
 16 18  1  0  0  0  0
 16 19  2  0  0  0  0
 18 20  2  0  0  0  0
 18 21  1  0  0  0  0
 19 22  1  0  0  0  0
 20 23  1  0  0  0  0
 21 24  2  0  0  0  0
 22 25  2  0  0  0  0
 22 26  1  0  0  0  0
 23 27  2  0  0  0  0
 25 28  1  0  0  0  0
 26 29  2  0  0  0  0
 27 30  1  0  0  0  0
 28 31  2  0  0  0  0
 30 32  2  0  0  0  0
 31 33  1  0  0  0  0
 32 34  1  0  0  0  0
 34 35  2  0  0  0  0
 34 36  1  0  0  0  0
 35 37  1  0  0  0  0
 36 38  2  0  0  0  0
 37 39  1  0  0  0  0
 37 40  2  0  0  0  0
 38 41  1  0  0  0  0
  6  8  1  0  0  0  0
 15 17  1  0  0  0  0
 17 19  1  0  0  0  0
 24 27  1  0  0  0  0
 29 31  1  0  0  0  0
 38 40  1  0  0  0  0
M  END
>  <MolRegNo>
2283493

>  <m>
=

>  <Value>
149.15

>  <Unit>
nM

>  <Type>
Ki

>  <pValue>
6.83

>  <Ligand Efficiency>
0.23

>  <Binding Efficiency>
11.59

>  <Surface Efficiency>
6.03

>  <Assay Index>
1182125

>  <Assay Category>


>  <Assay Organism>
Homo sapiens

>  <Target ID>
19

>  <Target Name>
Estrogen receptor alpha

>  <Target Organism>
Homo sapiens

>  <Target Description>
Target is a single protein chain

>  <Sequence Accession>
P03372

>  <Reference>
J Med Chem 61 (18), 8155-8173 (2018)

>  <Pubmed ID>
30053783

>  <DOI>
10.1021/acs.jmedchem.8b00224

$$$$
2292786
Actelion Java MolfileCreator 1.0

 41 46  0  0  0  0  0  0  0  0999 V2000
    0.0000   -0.0000   -0.0000 S   0  0  0  0  0  0  0  0  0  0  0  0
   -0.8198    1.3999   -0.0000 O   0  0  0  0  0  0  0  0  0  0  0  0
    0.7819    1.3999   -0.0000 O   0  0  0  0  0  0  0  0  0  0  0  0
    1.3747   -0.7693   -0.0000 O   0  0  0  0  0  0  0  0  0  0  0  0
   -1.3873   -0.7945   -0.0000 C   0  0  0  0  0  0  0  0  0  0  0  0
    2.7368    0.0504   -0.0000 C   0  0  0  0  0  0  0  0  0  0  0  0
   -2.7998    0.0378   -0.0000 C   0  0  0  0  0  0  0  0  0  0  0  0
   -1.9170   -1.8918   -0.0000 C   0  0  0  0  0  0  0  0  0  0  0  0
    4.1115   -0.7315   -0.0000 C   0  0  0  0  0  0  0  0  0  0  0  0
    2.7115    1.6522   -0.0000 C   0  0  0  0  0  0  0  0  0  0  0  0
   -3.0899    1.5008   -0.0000 O   0  0  0  0  0  0  0  0  0  0  0  0
   -3.9475   -0.7441   -0.0000 C   0  0  0  0  0  0  0  0  0  0  0  0
   -3.2286   -1.2233   -0.0000 C   0  0  0  0  0  0  0  0  0  0  0  0
    5.4735    0.0883   -0.0000 C   0  0  0  0  0  0  0  0  0  0  0  0
    4.0610    2.4719   -0.0000 C   0  0  0  0  0  0  0  0  0  0  0  0
   -5.1204   -0.0631   -0.0000 C   0  0  0  0  0  0  0  0  0  0  0  0
   -4.6033   -1.8918   -0.0000 C   0  0  0  0  0  0  0  0  0  0  0  0
    6.8482   -0.6810   -0.0000 O   0  0  0  0  0  0  0  0  0  0  0  0
    5.4483    1.6900   -0.0000 C   0  0  0  0  0  0  0  0  0  0  0  0
   -5.1330    1.2864   -0.0000 C   0  0  0  0  0  0  0  0  0  0  0  0
   -6.2807   -0.7189   -0.0000 C   0  0  0  0  0  0  0  0  0  0  0  0
   -5.9906   -2.6737   -0.0000 C   0  0  0  0  0  0  0  0  0  0  0  0
   -6.3059    1.9674   -0.0000 C   0  0  0  0  0  0  0  0  0  0  0  0
   -7.4536   -0.0378   -0.0000 C   0  0  0  0  0  0  0  0  0  0  0  0
   -6.0032   -4.2628   -0.0000 C   0  0  0  0  0  0  0  0  0  0  0  0
   -7.3779   -1.8666   -0.0000 C   0  0  0  0  0  0  0  0  0  0  0  0
   -7.4788    1.3116   -0.0000 C   0  0  0  0  0  0  0  0  0  0  0  0
   -7.4032   -5.0447   -0.0000 C   0  0  0  0  0  0  0  0  0  0  0  0
   -8.7652   -2.6485   -0.0000 C   0  0  0  0  0  0  0  0  0  0  0  0
   -8.6517    1.9927   -0.0000 C   0  0  0  0  0  0  0  0  0  0  0  0
   -8.7905   -4.2376   -0.0000 C   0  0  0  0  0  0  0  0  0  0  0  0
   -8.6643    3.3421   -0.0000 C   0  0  0  0  0  0  0  0  0  0  0  0
  -10.1778   -5.0195   -0.0000 O   0  0  0  0  0  0  0  0  0  0  0  0
   -9.8372    4.0232   -0.0000 C   0  0  0  0  0  0  0  0  0  0  0  0
   -9.8499    5.3853   -0.0000 C   0  0  0  0  0  0  0  0  0  0  0  0
  -11.0101    3.3674   -0.0000 C   0  0  0  0  0  0  0  0  0  0  0  0
  -11.0228    6.0663   -0.0000 C   0  0  0  0  0  0  0  0  0  0  0  0
  -12.1830    4.0484   -0.0000 C   0  0  0  0  0  0  0  0  0  0  0  0
  -11.0354    7.4158   -0.0000 O   0  0  0  0  0  0  0  0  0  0  0  0
  -12.1957    5.4105   -0.0000 C   0  0  0  0  0  0  0  0  0  0  0  0
  -13.3559    3.3800   -0.0000 O   0  0  0  0  0  0  0  0  0  0  0  0
  1  2  2  0  0  0  0
  1  3  2  0  0  0  0
  1  4  1  0  0  0  0
  1  5  1  0  0  0  0
  4  6  1  0  0  0  0
  5  7  1  0  0  0  0
  5  8  1  0  0  0  0
  6  9  2  0  0  0  0
  6 10  1  0  0  0  0
  7 11  1  0  0  0  0
  7 12  1  0  0  0  0
  8 13  1  0  0  0  0
  9 14  1  0  0  0  0
 10 15  2  0  0  0  0
 12 16  1  0  0  0  0
 12 17  2  0  0  0  0
 14 18  1  0  0  0  0
 14 19  2  0  0  0  0
 16 20  2  0  0  0  0
 16 21  1  0  0  0  0
 17 22  1  0  0  0  0
 20 23  1  0  0  0  0
 21 24  2  0  0  0  0
 22 25  2  0  0  0  0
 22 26  1  0  0  0  0
 23 27  2  0  0  0  0
 25 28  1  0  0  0  0
 26 29  2  0  0  0  0
 27 30  1  0  0  0  0
 28 31  2  0  0  0  0
 30 32  2  0  0  0  0
 31 33  1  0  0  0  0
 32 34  1  0  0  0  0
 34 35  2  0  0  0  0
 34 36  1  0  0  0  0
 35 37  1  0  0  0  0
 36 38  2  0  0  0  0
 37 39  1  0  0  0  0
 37 40  2  0  0  0  0
 38 41  1  0  0  0  0
 11 13  1  0  0  0  0
 13 17  1  0  0  0  0
 15 19  1  0  0  0  0
 24 27  1  0  0  0  0
 29 31  1  0  0  0  0
 38 40  1  0  0  0  0
M  END
>  <MolRegNo>
2292786

>  <m>
=

>  <Value>
240.69

>  <Unit>
nM

>  <Type>
Ki

>  <pValue>
6.62

>  <Ligand Efficiency>
0.22

>  <Binding Efficiency>
11.6

>  <Surface Efficiency>
4.96

>  <Assay Index>
1182125

>  <Assay Category>


>  <Assay Organism>
Homo sapiens

>  <Target ID>
19

>  <Target Name>
Estrogen receptor alpha

>  <Target Organism>
Homo sapiens

>  <Target Description>
Target is a single protein chain

>  <Sequence Accession>
P03372

>  <Reference>
J Med Chem 61 (18), 8155-8173 (2018)

>  <Pubmed ID>
30053783

>  <DOI>
10.1021/acs.jmedchem.8b00224

$$$$
2287870
Actelion Java MolfileCreator 1.0

 41 46  0  0  0  0  0  0  0  0999 V2000
    0.0000   -0.0000   -0.0000 S   0  0  0  0  0  0  0  0  0  0  0  0
   -0.8197    1.3998   -0.0000 O   0  0  0  0  0  0  0  0  0  0  0  0
    0.7819    1.3998   -0.0000 O   0  0  0  0  0  0  0  0  0  0  0  0
    1.3746   -0.7693   -0.0000 O   0  0  0  0  0  0  0  0  0  0  0  0
   -1.3872   -0.7945   -0.0000 C   0  0  0  0  0  0  0  0  0  0  0  0
    2.7365    0.0504   -0.0000 C   0  0  0  0  0  0  0  0  0  0  0  0
   -2.7996    0.0378   -0.0000 C   0  0  0  0  0  0  0  0  0  0  0  0
   -1.9168   -1.8916   -0.0000 C   0  0  0  0  0  0  0  0  0  0  0  0
    4.1111   -0.7314   -0.0000 C   0  0  0  0  0  0  0  0  0  0  0  0
    2.7113    1.6520   -0.0000 C   0  0  0  0  0  0  0  0  0  0  0  0
   -3.0896    1.5007   -0.0000 O   0  0  0  0  0  0  0  0  0  0  0  0
   -3.9472   -0.7440   -0.0000 C   0  0  0  0  0  0  0  0  0  0  0  0
   -3.2283   -1.2232   -0.0000 C   0  0  0  0  0  0  0  0  0  0  0  0
    5.4730    0.0883   -0.0000 C   0  0  0  0  0  0  0  0  0  0  0  0
    4.0606    2.4717   -0.0000 C   0  0  0  0  0  0  0  0  0  0  0  0
   -5.1199   -0.0631   -0.0000 C   0  0  0  0  0  0  0  0  0  0  0  0
   -4.6029   -1.8916   -0.0000 C   0  0  0  0  0  0  0  0  0  0  0  0
    5.4478    1.6898   -0.0000 C   0  0  0  0  0  0  0  0  0  0  0  0
    6.8476   -0.6810   -0.0000 C   0  0  0  0  0  0  0  0  0  0  0  0
   -5.1326    1.2863   -0.0000 C   0  0  0  0  0  0  0  0  0  0  0  0
   -6.2801   -0.7188   -0.0000 C   0  0  0  0  0  0  0  0  0  0  0  0
   -5.9901   -2.6861   -0.0000 C   0  0  0  0  0  0  0  0  0  0  0  0
   -6.3054    1.9673   -0.0000 C   0  0  0  0  0  0  0  0  0  0  0  0
   -7.4529   -0.0378   -0.0000 C   0  0  0  0  0  0  0  0  0  0  0  0
   -6.0027   -4.2750   -0.0000 C   0  0  0  0  0  0  0  0  0  0  0  0
   -7.3773   -1.8790   -0.0000 C   0  0  0  0  0  0  0  0  0  0  0  0
   -7.4782    1.3115   -0.0000 C   0  0  0  0  0  0  0  0  0  0  0  0
   -7.4025   -5.0569   -0.0000 C   0  0  0  0  0  0  0  0  0  0  0  0
   -8.7644   -2.6609   -0.0000 C   0  0  0  0  0  0  0  0  0  0  0  0
   -8.6509    1.9925   -0.0000 C   0  0  0  0  0  0  0  0  0  0  0  0
   -8.7897   -4.2498   -0.0000 C   0  0  0  0  0  0  0  0  0  0  0  0
   -8.6636    3.3418   -0.0000 C   0  0  0  0  0  0  0  0  0  0  0  0
  -10.1768   -5.0317   -0.0000 O   0  0  0  0  0  0  0  0  0  0  0  0
   -9.8364    4.0228   -0.0000 C   0  0  0  0  0  0  0  0  0  0  0  0
   -9.8490    5.3848   -0.0000 C   0  0  0  0  0  0  0  0  0  0  0  0
  -11.0092    3.3671   -0.0000 C   0  0  0  0  0  0  0  0  0  0  0  0
  -11.0218    6.0658   -0.0000 C   0  0  0  0  0  0  0  0  0  0  0  0
  -12.1819    4.0480   -0.0000 C   0  0  0  0  0  0  0  0  0  0  0  0
  -11.0344    7.4151   -0.0000 O   0  0  0  0  0  0  0  0  0  0  0  0
  -12.1946    5.4100   -0.0000 C   0  0  0  0  0  0  0  0  0  0  0  0
  -13.3547    3.3797   -0.0000 O   0  0  0  0  0  0  0  0  0  0  0  0
  1  2  2  0  0  0  0
  1  3  2  0  0  0  0
  1  4  1  0  0  0  0
  1  5  1  0  0  0  0
  4  6  1  0  0  0  0
  5  7  1  0  0  0  0
  5  8  1  0  0  0  0
  6  9  2  0  0  0  0
  6 10  1  0  0  0  0
  7 11  1  0  0  0  0
  7 12  1  0  0  0  0
  8 13  1  0  0  0  0
  9 14  1  0  0  0  0
 10 15  2  0  0  0  0
 12 16  1  0  0  0  0
 12 17  2  0  0  0  0
 14 18  2  0  0  0  0
 14 19  1  0  0  0  0
 16 20  2  0  0  0  0
 16 21  1  0  0  0  0
 17 22  1  0  0  0  0
 20 23  1  0  0  0  0
 21 24  2  0  0  0  0
 22 25  2  0  0  0  0
 22 26  1  0  0  0  0
 23 27  2  0  0  0  0
 25 28  1  0  0  0  0
 26 29  2  0  0  0  0
 27 30  1  0  0  0  0
 28 31  2  0  0  0  0
 30 32  2  0  0  0  0
 31 33  1  0  0  0  0
 32 34  1  0  0  0  0
 34 35  2  0  0  0  0
 34 36  1  0  0  0  0
 35 37  1  0  0  0  0
 36 38  2  0  0  0  0
 37 39  1  0  0  0  0
 37 40  2  0  0  0  0
 38 41  1  0  0  0  0
 11 13  1  0  0  0  0
 13 17  1  0  0  0  0
 15 18  1  0  0  0  0
 24 27  1  0  0  0  0
 29 31  1  0  0  0  0
 38 40  1  0  0  0  0
M  END
>  <MolRegNo>
2287870

>  <m>
=

>  <Value>
168.6

>  <Unit>
nM

>  <Type>
Ki

>  <pValue>
6.77

>  <Ligand Efficiency>
0.23

>  <Binding Efficiency>
11.91

>  <Surface Efficiency>
5.98

>  <Assay Index>
1182125

>  <Assay Category>


>  <Assay Organism>
Homo sapiens

>  <Target ID>
19

>  <Target Name>
Estrogen receptor alpha

>  <Target Organism>
Homo sapiens

>  <Target Description>
Target is a single protein chain

>  <Sequence Accession>
P03372

>  <Reference>
J Med Chem 61 (18), 8155-8173 (2018)

>  <Pubmed ID>
30053783

>  <DOI>
10.1021/acs.jmedchem.8b00224

$$$$
2280584
Actelion Java MolfileCreator 1.0

 41 46  0  0  0  0  0  0  0  0999 V2000
    0.0000   -0.0000   -0.0000 S   0  0  0  0  0  0  0  0  0  0  0  0
   -0.8193    1.3992   -0.0000 O   0  0  0  0  0  0  0  0  0  0  0  0
    0.7815    1.3992   -0.0000 O   0  0  0  0  0  0  0  0  0  0  0  0
    1.3740   -0.7689   -0.0000 O   0  0  0  0  0  0  0  0  0  0  0  0
   -1.3866   -0.7941   -0.0000 C   0  0  0  0  0  0  0  0  0  0  0  0
    2.7353    0.0504   -0.0000 C   0  0  0  0  0  0  0  0  0  0  0  0
   -2.8110    0.0378   -0.0000 C   0  0  0  0  0  0  0  0  0  0  0  0
   -1.9160   -1.8908   -0.0000 C   0  0  0  0  0  0  0  0  0  0  0  0
    4.1093   -0.7311   -0.0000 C   0  0  0  0  0  0  0  0  0  0  0  0
    2.7101    1.6513   -0.0000 C   0  0  0  0  0  0  0  0  0  0  0  0
   -3.1009    1.5000   -0.0000 O   0  0  0  0  0  0  0  0  0  0  0  0
   -3.9581   -0.7437   -0.0000 C   0  0  0  0  0  0  0  0  0  0  0  0
   -3.2269   -1.2227   -0.0000 C   0  0  0  0  0  0  0  0  0  0  0  0
    5.4707    0.0882   -0.0000 C   0  0  0  0  0  0  0  0  0  0  0  0
    4.0589    2.4706   -0.0000 C   0  0  0  0  0  0  0  0  0  0  0  0
   -5.1303   -0.0630   -0.0000 C   0  0  0  0  0  0  0  0  0  0  0  0
   -4.6135   -1.8908   -0.0000 C   0  0  0  0  0  0  0  0  0  0  0  0
    5.4455    1.6891   -0.0000 C   0  0  0  0  0  0  0  0  0  0  0  0
   -5.1429    1.2857   -0.0000 C   0  0  0  0  0  0  0  0  0  0  0  0
   -6.2900   -0.7185   -0.0000 C   0  0  0  0  0  0  0  0  0  0  0  0
   -6.0001   -2.6723   -0.0000 C   0  0  0  0  0  0  0  0  0  0  0  0
    6.8068    2.5084   -0.0000 O   0  0  0  0  0  0  0  0  0  0  0  0
   -6.3152    1.9664   -0.0000 C   0  0  0  0  0  0  0  0  0  0  0  0
   -7.4623   -0.0378   -0.0000 C   0  0  0  0  0  0  0  0  0  0  0  0
   -6.0127   -4.2606   -0.0000 C   0  0  0  0  0  0  0  0  0  0  0  0
   -7.3867   -1.8656   -0.0000 C   0  0  0  0  0  0  0  0  0  0  0  0
   -7.4875    1.3109   -0.0000 C   0  0  0  0  0  0  0  0  0  0  0  0
   -7.4119   -5.0421   -0.0000 C   0  0  0  0  0  0  0  0  0  0  0  0
   -8.7733   -2.6471   -0.0000 C   0  0  0  0  0  0  0  0  0  0  0  0
   -8.6598    1.9916   -0.0000 C   0  0  0  0  0  0  0  0  0  0  0  0
   -8.7985   -4.2354   -0.0000 C   0  0  0  0  0  0  0  0  0  0  0  0
   -8.6724    3.3404   -0.0000 C   0  0  0  0  0  0  0  0  0  0  0  0
  -10.1851   -5.0169   -0.0000 O   0  0  0  0  0  0  0  0  0  0  0  0
   -9.8447    4.0211   -0.0000 C   0  0  0  0  0  0  0  0  0  0  0  0
   -9.8573    5.3824   -0.0000 C   0  0  0  0  0  0  0  0  0  0  0  0
  -11.0170    3.3656   -0.0000 C   0  0  0  0  0  0  0  0  0  0  0  0
  -11.0296    6.0631   -0.0000 C   0  0  0  0  0  0  0  0  0  0  0  0
  -12.1893    4.0463   -0.0000 C   0  0  0  0  0  0  0  0  0  0  0  0
  -11.0422    7.4119   -0.0000 O   0  0  0  0  0  0  0  0  0  0  0  0
  -12.2019    5.4077   -0.0000 C   0  0  0  0  0  0  0  0  0  0  0  0
  -13.3616    3.3782   -0.0000 O   0  0  0  0  0  0  0  0  0  0  0  0
  1  2  2  0  0  0  0
  1  3  2  0  0  0  0
  1  4  1  0  0  0  0
  1  5  1  0  0  0  0
  4  6  1  0  0  0  0
  5  7  1  0  0  0  0
  5  8  1  0  0  0  0
  6  9  2  0  0  0  0
  6 10  1  0  0  0  0
  7 11  1  0  0  0  0
  7 12  1  0  0  0  0
  8 13  1  0  0  0  0
  9 14  1  0  0  0  0
 10 15  2  0  0  0  0
 12 16  1  0  0  0  0
 12 17  2  0  0  0  0
 14 18  2  0  0  0  0
 16 19  2  0  0  0  0
 16 20  1  0  0  0  0
 17 21  1  0  0  0  0
 18 22  1  0  0  0  0
 19 23  1  0  0  0  0
 20 24  2  0  0  0  0
 21 25  2  0  0  0  0
 21 26  1  0  0  0  0
 23 27  2  0  0  0  0
 25 28  1  0  0  0  0
 26 29  2  0  0  0  0
 27 30  1  0  0  0  0
 28 31  2  0  0  0  0
 30 32  2  0  0  0  0
 31 33  1  0  0  0  0
 32 34  1  0  0  0  0
 34 35  2  0  0  0  0
 34 36  1  0  0  0  0
 35 37  1  0  0  0  0
 36 38  2  0  0  0  0
 37 39  1  0  0  0  0
 37 40  2  0  0  0  0
 38 41  1  0  0  0  0
 11 13  1  0  0  0  0
 13 17  1  0  0  0  0
 15 18  1  0  0  0  0
 24 27  1  0  0  0  0
 29 31  1  0  0  0  0
 38 40  1  0  0  0  0
M  END
>  <MolRegNo>
2280584

>  <m>
=

>  <Value>
116.72

>  <Unit>
nM

>  <Type>
Ki

>  <pValue>
6.93

>  <Ligand Efficiency>
0.23

>  <Binding Efficiency>
12.15

>  <Surface Efficiency>
5.19

>  <Assay Index>
1182125

>  <Assay Category>


>  <Assay Organism>
Homo sapiens

>  <Target ID>
19

>  <Target Name>
Estrogen receptor alpha

>  <Target Organism>
Homo sapiens

>  <Target Description>
Target is a single protein chain

>  <Sequence Accession>
P03372

>  <Reference>
J Med Chem 61 (18), 8155-8173 (2018)

>  <Pubmed ID>
30053783

>  <DOI>
10.1021/acs.jmedchem.8b00224

$$$$
2292276
Actelion Java MolfileCreator 1.0

 41 46  0  0  0  0  0  0  0  0999 V2000
    0.0000   -0.0000   -0.0000 Br  0  0  0  0  0  0  0  0  0  0  0  0
   -1.3963    0.7925   -0.0000 C   0  0  0  0  0  0  0  0  0  0  0  0
   -2.7800   -0.0000   -0.0000 C   0  0  0  0  0  0  0  0  0  0  0  0
   -1.4214    2.3900   -0.0000 C   0  0  0  0  0  0  0  0  0  0  0  0
   -4.1763    0.8051   -0.0000 C   0  0  0  0  0  0  0  0  0  0  0  0
   -2.8303    3.1825   -0.0000 C   0  0  0  0  0  0  0  0  0  0  0  0
   -5.5600    0.0126   -0.0000 O   0  0  0  0  0  0  0  0  0  0  0  0
   -4.2014    2.4026   -0.0000 C   0  0  0  0  0  0  0  0  0  0  0  0
   -6.9562    0.8051   -0.0000 S   0  0  0  0  0  0  0  0  0  0  0  0
   -7.7739    2.2013   -0.0000 O   0  0  0  0  0  0  0  0  0  0  0  0
   -6.1763    2.2013   -0.0000 O   0  0  0  0  0  0  0  0  0  0  0  0
   -8.3399    0.0126   -0.0000 C   0  0  0  0  0  0  0  0  0  0  0  0
   -9.7614    0.8428   -0.0000 C   0  0  0  0  0  0  0  0  0  0  0  0
   -8.8683   -1.0818   -0.0000 C   0  0  0  0  0  0  0  0  0  0  0  0
  -10.0507    2.3020   -0.0000 O   0  0  0  0  0  0  0  0  0  0  0  0
  -10.9061    0.0629   -0.0000 C   0  0  0  0  0  0  0  0  0  0  0  0
  -10.1765   -0.4151   -0.0000 C   0  0  0  0  0  0  0  0  0  0  0  0
  -12.0759    0.7422   -0.0000 C   0  0  0  0  0  0  0  0  0  0  0  0
  -11.5602   -1.0818   -0.0000 C   0  0  0  0  0  0  0  0  0  0  0  0
  -12.0885    2.0881   -0.0000 C   0  0  0  0  0  0  0  0  0  0  0  0
  -13.2332    0.0881   -0.0000 C   0  0  0  0  0  0  0  0  0  0  0  0
  -12.9439   -1.8743   -0.0000 C   0  0  0  0  0  0  0  0  0  0  0  0
  -13.2584    2.7674   -0.0000 C   0  0  0  0  0  0  0  0  0  0  0  0
  -14.4031    0.7673   -0.0000 C   0  0  0  0  0  0  0  0  0  0  0  0
  -12.9565   -3.4593   -0.0000 C   0  0  0  0  0  0  0  0  0  0  0  0
  -14.3276   -1.0692   -0.0000 C   0  0  0  0  0  0  0  0  0  0  0  0
  -14.4282    2.1133   -0.0000 C   0  0  0  0  0  0  0  0  0  0  0  0
  -14.3527   -4.2392   -0.0000 C   0  0  0  0  0  0  0  0  0  0  0  0
  -15.7113   -1.8491   -0.0000 C   0  0  0  0  0  0  0  0  0  0  0  0
  -15.5981    2.7926   -0.0000 C   0  0  0  0  0  0  0  0  0  0  0  0
  -15.7364   -3.4341   -0.0000 C   0  0  0  0  0  0  0  0  0  0  0  0
  -15.6107    4.1385   -0.0000 C   0  0  0  0  0  0  0  0  0  0  0  0
  -17.1201   -4.2140   -0.0000 O   0  0  0  0  0  0  0  0  0  0  0  0
  -16.7805    4.8178   -0.0000 C   0  0  0  0  0  0  0  0  0  0  0  0
  -16.7931    6.1763   -0.0000 C   0  0  0  0  0  0  0  0  0  0  0  0
  -17.9504    4.1637   -0.0000 C   0  0  0  0  0  0  0  0  0  0  0  0
  -17.9629    6.8556   -0.0000 C   0  0  0  0  0  0  0  0  0  0  0  0
  -19.1202    4.8430   -0.0000 C   0  0  0  0  0  0  0  0  0  0  0  0
  -17.9755    8.2016   -0.0000 O   0  0  0  0  0  0  0  0  0  0  0  0
  -19.1328    6.2015   -0.0000 C   0  0  0  0  0  0  0  0  0  0  0  0
  -20.2901    4.1763   -0.0000 O   0  0  0  0  0  0  0  0  0  0  0  0
  1  2  1  0  0  0  0
  2  3  2  0  0  0  0
  2  4  1  0  0  0  0
  3  5  1  0  0  0  0
  4  6  2  0  0  0  0
  5  7  1  0  0  0  0
  5  8  2  0  0  0  0
  7  9  1  0  0  0  0
  9 10  2  0  0  0  0
  9 11  2  0  0  0  0
  9 12  1  0  0  0  0
 12 13  1  0  0  0  0
 12 14  1  0  0  0  0
 13 15  1  0  0  0  0
 13 16  1  0  0  0  0
 14 17  1  0  0  0  0
 16 18  1  0  0  0  0
 16 19  2  0  0  0  0
 18 20  2  0  0  0  0
 18 21  1  0  0  0  0
 19 22  1  0  0  0  0
 20 23  1  0  0  0  0
 21 24  2  0  0  0  0
 22 25  2  0  0  0  0
 22 26  1  0  0  0  0
 23 27  2  0  0  0  0
 25 28  1  0  0  0  0
 26 29  2  0  0  0  0
 27 30  1  0  0  0  0
 28 31  2  0  0  0  0
 30 32  2  0  0  0  0
 31 33  1  0  0  0  0
 32 34  1  0  0  0  0
 34 35  2  0  0  0  0
 34 36  1  0  0  0  0
 35 37  1  0  0  0  0
 36 38  2  0  0  0  0
 37 39  1  0  0  0  0
 37 40  2  0  0  0  0
 38 41  1  0  0  0  0
  6  8  1  0  0  0  0
 15 17  1  0  0  0  0
 17 19  1  0  0  0  0
 24 27  1  0  0  0  0
 29 31  1  0  0  0  0
 38 40  1  0  0  0  0
M  END
>  <MolRegNo>
2292276

>  <m>
=

>  <Value>
29.7

>  <Unit>
nM

>  <Type>
Ki

>  <pValue>
7.53

>  <Ligand Efficiency>
0.25

>  <Binding Efficiency>
11.88

>  <Surface Efficiency>
6.64

>  <Assay Index>
1182125

>  <Assay Category>


>  <Assay Organism>
Homo sapiens

>  <Target ID>
19

>  <Target Name>
Estrogen receptor alpha

>  <Target Organism>
Homo sapiens

>  <Target Description>
Target is a single protein chain

>  <Sequence Accession>
P03372

>  <Reference>
J Med Chem 61 (18), 8155-8173 (2018)

>  <Pubmed ID>
30053783

>  <DOI>
10.1021/acs.jmedchem.8b00224

$$$$
2284949
Actelion Java MolfileCreator 1.0

 41 46  0  0  0  0  0  0  0  0999 V2000
    0.0000   -0.0000   -0.0000 S   0  0  0  0  0  0  0  0  0  0  0  0
   -0.8193    1.3992   -0.0000 O   0  0  0  0  0  0  0  0  0  0  0  0
    0.7815    1.3992   -0.0000 O   0  0  0  0  0  0  0  0  0  0  0  0
    1.3740   -0.7689   -0.0000 O   0  0  0  0  0  0  0  0  0  0  0  0
   -1.3866   -0.7941   -0.0000 C   0  0  0  0  0  0  0  0  0  0  0  0
    2.7353    0.0504   -0.0000 C   0  0  0  0  0  0  0  0  0  0  0  0
   -2.8110    0.0378   -0.0000 C   0  0  0  0  0  0  0  0  0  0  0  0
   -1.9160   -1.8908   -0.0000 C   0  0  0  0  0  0  0  0  0  0  0  0
    4.1093   -0.7311   -0.0000 C   0  0  0  0  0  0  0  0  0  0  0  0
    2.7101    1.6513   -0.0000 C   0  0  0  0  0  0  0  0  0  0  0  0
   -3.1009    1.5000   -0.0000 O   0  0  0  0  0  0  0  0  0  0  0  0
   -3.9581   -0.7437   -0.0000 C   0  0  0  0  0  0  0  0  0  0  0  0
   -3.2269   -1.2227   -0.0000 C   0  0  0  0  0  0  0  0  0  0  0  0
    5.4707    0.0882   -0.0000 C   0  0  0  0  0  0  0  0  0  0  0  0
    4.0589    2.4706   -0.0000 C   0  0  0  0  0  0  0  0  0  0  0  0
   -5.1303   -0.0630   -0.0000 C   0  0  0  0  0  0  0  0  0  0  0  0
   -4.6135   -1.8908   -0.0000 C   0  0  0  0  0  0  0  0  0  0  0  0
    5.4455    1.6891   -0.0000 C   0  0  0  0  0  0  0  0  0  0  0  0
   -5.1429    1.2857   -0.0000 C   0  0  0  0  0  0  0  0  0  0  0  0
   -6.2900   -0.7185   -0.0000 C   0  0  0  0  0  0  0  0  0  0  0  0
   -6.0001   -2.6723   -0.0000 C   0  0  0  0  0  0  0  0  0  0  0  0
    6.8068    2.5084   -0.0000 C   0  0  0  0  0  0  0  0  0  0  0  0
   -6.3152    1.9664   -0.0000 C   0  0  0  0  0  0  0  0  0  0  0  0
   -7.4623   -0.0378   -0.0000 C   0  0  0  0  0  0  0  0  0  0  0  0
   -6.0127   -4.2606   -0.0000 C   0  0  0  0  0  0  0  0  0  0  0  0
   -7.3867   -1.8656   -0.0000 C   0  0  0  0  0  0  0  0  0  0  0  0
   -7.4875    1.3109   -0.0000 C   0  0  0  0  0  0  0  0  0  0  0  0
   -7.4119   -5.0421   -0.0000 C   0  0  0  0  0  0  0  0  0  0  0  0
   -8.7733   -2.6471   -0.0000 C   0  0  0  0  0  0  0  0  0  0  0  0
   -8.6598    1.9916   -0.0000 C   0  0  0  0  0  0  0  0  0  0  0  0
   -8.7985   -4.2354   -0.0000 C   0  0  0  0  0  0  0  0  0  0  0  0
   -8.6724    3.3404   -0.0000 C   0  0  0  0  0  0  0  0  0  0  0  0
  -10.1851   -5.0169   -0.0000 O   0  0  0  0  0  0  0  0  0  0  0  0
   -9.8447    4.0211   -0.0000 C   0  0  0  0  0  0  0  0  0  0  0  0
   -9.8573    5.3824   -0.0000 C   0  0  0  0  0  0  0  0  0  0  0  0
  -11.0170    3.3656   -0.0000 C   0  0  0  0  0  0  0  0  0  0  0  0
  -11.0296    6.0631   -0.0000 C   0  0  0  0  0  0  0  0  0  0  0  0
  -12.1893    4.0463   -0.0000 C   0  0  0  0  0  0  0  0  0  0  0  0
  -11.0422    7.4119   -0.0000 O   0  0  0  0  0  0  0  0  0  0  0  0
  -12.2019    5.4077   -0.0000 C   0  0  0  0  0  0  0  0  0  0  0  0
  -13.3616    3.3782   -0.0000 O   0  0  0  0  0  0  0  0  0  0  0  0
  1  2  2  0  0  0  0
  1  3  2  0  0  0  0
  1  4  1  0  0  0  0
  1  5  1  0  0  0  0
  4  6  1  0  0  0  0
  5  7  1  0  0  0  0
  5  8  1  0  0  0  0
  6  9  2  0  0  0  0
  6 10  1  0  0  0  0
  7 11  1  0  0  0  0
  7 12  1  0  0  0  0
  8 13  1  0  0  0  0
  9 14  1  0  0  0  0
 10 15  2  0  0  0  0
 12 16  1  0  0  0  0
 12 17  2  0  0  0  0
 14 18  2  0  0  0  0
 16 19  2  0  0  0  0
 16 20  1  0  0  0  0
 17 21  1  0  0  0  0
 18 22  1  0  0  0  0
 19 23  1  0  0  0  0
 20 24  2  0  0  0  0
 21 25  2  0  0  0  0
 21 26  1  0  0  0  0
 23 27  2  0  0  0  0
 25 28  1  0  0  0  0
 26 29  2  0  0  0  0
 27 30  1  0  0  0  0
 28 31  2  0  0  0  0
 30 32  2  0  0  0  0
 31 33  1  0  0  0  0
 32 34  1  0  0  0  0
 34 35  2  0  0  0  0
 34 36  1  0  0  0  0
 35 37  1  0  0  0  0
 36 38  2  0  0  0  0
 37 39  1  0  0  0  0
 37 40  2  0  0  0  0
 38 41  1  0  0  0  0
 11 13  1  0  0  0  0
 13 17  1  0  0  0  0
 15 18  1  0  0  0  0
 24 27  1  0  0  0  0
 29 31  1  0  0  0  0
 38 40  1  0  0  0  0
M  END
>  <MolRegNo>
2284949

>  <m>
=

>  <Value>
10.51

>  <Unit>
nM

>  <Type>
Ki

>  <pValue>
7.98

>  <Ligand Efficiency>
0.27

>  <Binding Efficiency>
14.03

>  <Surface Efficiency>
7.04

>  <Assay Index>
1182125

>  <Assay Category>


>  <Assay Organism>
Homo sapiens

>  <Target ID>
19

>  <Target Name>
Estrogen receptor alpha

>  <Target Organism>
Homo sapiens

>  <Target Description>
Target is a single protein chain

>  <Sequence Accession>
P03372

>  <Reference>
J Med Chem 61 (18), 8155-8173 (2018)

>  <Pubmed ID>
30053783

>  <DOI>
10.1021/acs.jmedchem.8b00224

$$$$
2296694
Actelion Java MolfileCreator 1.0

 44 50  0  0  0  0  0  0  0  0999 V2000
    0.0000   -0.0000   -0.0000 S   0  0  0  0  0  0  0  0  0  0  0  0
   -0.8174    1.3958   -0.0000 O   0  0  0  0  0  0  0  0  0  0  0  0
    0.7797    1.3958   -0.0000 O   0  0  0  0  0  0  0  0  0  0  0  0
    1.3707   -0.7671   -0.0000 O   0  0  0  0  0  0  0  0  0  0  0  0
   -1.3833   -0.7922   -0.0000 C   0  0  0  0  0  0  0  0  0  0  0  0
    2.7288    0.0503   -0.0000 C   0  0  0  0  0  0  0  0  0  0  0  0
   -2.7917    0.0377   -0.0000 C   0  0  0  0  0  0  0  0  0  0  0  0
   -1.9114   -1.8863   -0.0000 C   0  0  0  0  0  0  0  0  0  0  0  0
    4.0995   -0.7168   -0.0000 C   0  0  0  0  0  0  0  0  0  0  0  0
    2.7037    1.6473   -0.0000 C   0  0  0  0  0  0  0  0  0  0  0  0
   -3.0809    1.4964   -0.0000 O   0  0  0  0  0  0  0  0  0  0  0  0
   -3.9360   -0.7419   -0.0000 C   0  0  0  0  0  0  0  0  0  0  0  0
   -3.2192   -1.2198   -0.0000 C   0  0  0  0  0  0  0  0  0  0  0  0
    5.4450    0.0880   -0.0000 C   0  0  0  0  0  0  0  0  0  0  0  0
    4.0995   -2.2761   -0.0000 C   0  0  0  0  0  0  0  0  0  0  0  0
    4.0492    2.4647   -0.0000 C   0  0  0  0  0  0  0  0  0  0  0  0
   -5.1055   -0.0629   -0.0000 C   0  0  0  0  0  0  0  0  0  0  0  0
   -4.5899   -1.8863   -0.0000 C   0  0  0  0  0  0  0  0  0  0  0  0
    5.4199    1.6851   -0.0000 C   0  0  0  0  0  0  0  0  0  0  0  0
    6.8031   -0.6791   -0.0000 C   0  0  0  0  0  0  0  0  0  0  0  0
    5.4576   -3.0432   -0.0000 C   0  0  0  0  0  0  0  0  0  0  0  0
   -5.1181    1.2827   -0.0000 C   0  0  0  0  0  0  0  0  0  0  0  0
   -6.2624   -0.7168   -0.0000 C   0  0  0  0  0  0  0  0  0  0  0  0
   -5.9732   -2.6659   -0.0000 C   0  0  0  0  0  0  0  0  0  0  0  0
    6.8031   -2.2384   -0.0000 C   0  0  0  0  0  0  0  0  0  0  0  0
   -6.2876    1.9617   -0.0000 C   0  0  0  0  0  0  0  0  0  0  0  0
   -7.4319   -0.0377   -0.0000 C   0  0  0  0  0  0  0  0  0  0  0  0
   -5.9858   -4.2504   -0.0000 C   0  0  0  0  0  0  0  0  0  0  0  0
   -7.3564   -1.8611   -0.0000 C   0  0  0  0  0  0  0  0  0  0  0  0
   -7.4570    1.3078   -0.0000 C   0  0  0  0  0  0  0  0  0  0  0  0
   -7.3816   -5.0300   -0.0000 C   0  0  0  0  0  0  0  0  0  0  0  0
   -8.7397   -2.6408   -0.0000 C   0  0  0  0  0  0  0  0  0  0  0  0
   -8.6265    1.9869   -0.0000 C   0  0  0  0  0  0  0  0  0  0  0  0
   -8.7649   -4.2252   -0.0000 C   0  0  0  0  0  0  0  0  0  0  0  0
   -8.6391    3.3324   -0.0000 C   0  0  0  0  0  0  0  0  0  0  0  0
  -10.1481   -5.0049   -0.0000 O   0  0  0  0  0  0  0  0  0  0  0  0
   -9.8086    4.0115   -0.0000 C   0  0  0  0  0  0  0  0  0  0  0  0
   -9.8212    5.3696   -0.0000 C   0  0  0  0  0  0  0  0  0  0  0  0
  -10.9781    3.3576   -0.0000 C   0  0  0  0  0  0  0  0  0  0  0  0
  -10.9907    6.0486   -0.0000 C   0  0  0  0  0  0  0  0  0  0  0  0
  -12.1476    4.0366   -0.0000 C   0  0  0  0  0  0  0  0  0  0  0  0
  -11.0032    7.3942   -0.0000 O   0  0  0  0  0  0  0  0  0  0  0  0
  -12.1601    5.3947   -0.0000 C   0  0  0  0  0  0  0  0  0  0  0  0
  -13.3171    3.3701   -0.0000 O   0  0  0  0  0  0  0  0  0  0  0  0
  1  2  2  0  0  0  0
  1  3  2  0  0  0  0
  1  4  1  0  0  0  0
  1  5  1  0  0  0  0
  4  6  1  0  0  0  0
  5  7  1  0  0  0  0
  5  8  1  0  0  0  0
  6  9  1  0  0  0  0
  6 10  2  0  0  0  0
  7 11  1  0  0  0  0
  7 12  1  0  0  0  0
  8 13  1  0  0  0  0
  9 14  1  0  0  0  0
  9 15  2  0  0  0  0
 10 16  1  0  0  0  0
 12 17  1  0  0  0  0
 12 18  2  0  0  0  0
 14 19  1  0  0  0  0
 14 20  2  0  0  0  0
 15 21  1  0  0  0  0
 17 22  2  0  0  0  0
 17 23  1  0  0  0  0
 18 24  1  0  0  0  0
 20 25  1  0  0  0  0
 22 26  1  0  0  0  0
 23 27  2  0  0  0  0
 24 28  2  0  0  0  0
 24 29  1  0  0  0  0
 26 30  2  0  0  0  0
 28 31  1  0  0  0  0
 29 32  2  0  0  0  0
 30 33  1  0  0  0  0
 31 34  2  0  0  0  0
 33 35  2  0  0  0  0
 34 36  1  0  0  0  0
 35 37  1  0  0  0  0
 37 38  2  0  0  0  0
 37 39  1  0  0  0  0
 38 40  1  0  0  0  0
 39 41  2  0  0  0  0
 40 42  1  0  0  0  0
 40 43  2  0  0  0  0
 41 44  1  0  0  0  0
 11 13  1  0  0  0  0
 13 18  1  0  0  0  0
 16 19  2  0  0  0  0
 21 25  2  0  0  0  0
 27 30  1  0  0  0  0
 32 34  1  0  0  0  0
 41 43  1  0  0  0  0
M  END
>  <MolRegNo>
2296694

>  <m>
=

>  <Value>
211.52

>  <Unit>
nM

>  <Type>
Ki

>  <pValue>
6.67

>  <Ligand Efficiency>
0.21

>  <Binding Efficiency>
11.04

>  <Surface Efficiency>
5.89

>  <Assay Index>
1182125

>  <Assay Category>


>  <Assay Organism>
Homo sapiens

>  <Target ID>
19

>  <Target Name>
Estrogen receptor alpha

>  <Target Organism>
Homo sapiens

>  <Target Description>
Target is a single protein chain

>  <Sequence Accession>
P03372

>  <Reference>
J Med Chem 61 (18), 8155-8173 (2018)

>  <Pubmed ID>
30053783

>  <DOI>
10.1021/acs.jmedchem.8b00224

$$$$
2289314
Actelion Java MolfileCreator 1.0

 38 43  0  0  0  0  0  0  0  0999 V2000
    0.0000   -0.0000   -0.0000 S   0  0  0  0  0  0  0  0  0  0  0  0
   -0.8171    1.3954   -0.0000 O   0  0  0  0  0  0  0  0  0  0  0  0
    0.7794    1.3954   -0.0000 O   0  0  0  0  0  0  0  0  0  0  0  0
    1.3703   -0.7669   -0.0000 O   0  0  0  0  0  0  0  0  0  0  0  0
   -1.3828   -0.7920   -0.0000 C   0  0  0  0  0  0  0  0  0  0  0  0
    2.7280    0.0503   -0.0000 C   0  0  0  0  0  0  0  0  0  0  0  0
   -2.7908    0.0377   -0.0000 C   0  0  0  0  0  0  0  0  0  0  0  0
   -1.9108   -1.8857   -0.0000 C   0  0  0  0  0  0  0  0  0  0  0  0
    2.7028    1.6468   -0.0000 C   0  0  0  0  0  0  0  0  0  0  0  0
    4.0982   -0.7166   -0.0000 C   0  0  0  0  0  0  0  0  0  0  0  0
   -3.0800    1.4960   -0.0000 O   0  0  0  0  0  0  0  0  0  0  0  0
   -3.9348   -0.7417   -0.0000 C   0  0  0  0  0  0  0  0  0  0  0  0
   -3.2183   -1.2194   -0.0000 C   0  0  0  0  0  0  0  0  0  0  0  0
    4.0480    2.4640   -0.0000 C   0  0  0  0  0  0  0  0  0  0  0  0
    5.4434    0.0880   -0.0000 C   0  0  0  0  0  0  0  0  0  0  0  0
   -5.1040   -0.0629   -0.0000 C   0  0  0  0  0  0  0  0  0  0  0  0
   -4.5885   -1.8857   -0.0000 C   0  0  0  0  0  0  0  0  0  0  0  0
    5.4308    1.6971   -0.0000 C   0  0  0  0  0  0  0  0  0  0  0  0
   -5.1165    1.2823   -0.0000 C   0  0  0  0  0  0  0  0  0  0  0  0
   -6.2605   -0.7166   -0.0000 C   0  0  0  0  0  0  0  0  0  0  0  0
   -5.9714   -2.6651   -0.0000 C   0  0  0  0  0  0  0  0  0  0  0  0
   -6.2857    1.9611   -0.0000 C   0  0  0  0  0  0  0  0  0  0  0  0
   -7.4296   -0.0377   -0.0000 C   0  0  0  0  0  0  0  0  0  0  0  0
   -5.9839   -4.2491   -0.0000 C   0  0  0  0  0  0  0  0  0  0  0  0
   -7.3542   -1.8606   -0.0000 C   0  0  0  0  0  0  0  0  0  0  0  0
   -7.4548    1.3074   -0.0000 C   0  0  0  0  0  0  0  0  0  0  0  0
   -7.3794   -5.0285   -0.0000 C   0  0  0  0  0  0  0  0  0  0  0  0
   -8.7371   -2.6400   -0.0000 C   0  0  0  0  0  0  0  0  0  0  0  0
   -8.6239    1.9863   -0.0000 C   0  0  0  0  0  0  0  0  0  0  0  0
   -8.7622   -4.2240   -0.0000 C   0  0  0  0  0  0  0  0  0  0  0  0
   -8.6365    3.3314   -0.0000 C   0  0  0  0  0  0  0  0  0  0  0  0
  -10.1451   -5.0034   -0.0000 O   0  0  0  0  0  0  0  0  0  0  0  0
   -9.8056    4.0103   -0.0000 C   0  0  0  0  0  0  0  0  0  0  0  0
   -9.8182    5.3680   -0.0000 C   0  0  0  0  0  0  0  0  0  0  0  0
  -10.9748    3.3565   -0.0000 C   0  0  0  0  0  0  0  0  0  0  0  0
  -10.9873    6.0468   -0.0000 C   0  0  0  0  0  0  0  0  0  0  0  0
  -12.1439    4.0354   -0.0000 C   0  0  0  0  0  0  0  0  0  0  0  0
  -12.1565    5.3931   -0.0000 C   0  0  0  0  0  0  0  0  0  0  0  0
  1  2  2  0  0  0  0
  1  3  2  0  0  0  0
  1  4  1  0  0  0  0
  1  5  1  0  0  0  0
  4  6  1  0  0  0  0
  5  7  1  0  0  0  0
  5  8  1  0  0  0  0
  6  9  2  0  0  0  0
  6 10  1  0  0  0  0
  7 11  1  0  0  0  0
  7 12  1  0  0  0  0
  8 13  1  0  0  0  0
  9 14  1  0  0  0  0
 10 15  2  0  0  0  0
 12 16  1  0  0  0  0
 12 17  2  0  0  0  0
 14 18  2  0  0  0  0
 16 19  2  0  0  0  0
 16 20  1  0  0  0  0
 17 21  1  0  0  0  0
 19 22  1  0  0  0  0
 20 23  2  0  0  0  0
 21 24  2  0  0  0  0
 21 25  1  0  0  0  0
 22 26  2  0  0  0  0
 24 27  1  0  0  0  0
 25 28  2  0  0  0  0
 26 29  1  0  0  0  0
 27 30  2  0  0  0  0
 29 31  2  0  0  0  0
 30 32  1  0  0  0  0
 31 33  1  0  0  0  0
 33 34  2  0  0  0  0
 33 35  1  0  0  0  0
 34 36  1  0  0  0  0
 35 37  2  0  0  0  0
 36 38  2  0  0  0  0
 11 13  1  0  0  0  0
 13 17  1  0  0  0  0
 15 18  1  0  0  0  0
 23 26  1  0  0  0  0
 28 30  1  0  0  0  0
 37 38  1  0  0  0  0
M  END
>  <MolRegNo>
2289314

>  <m>
=

>  <Value>
129.74

>  <Unit>
nM

>  <Type>
Ki

>  <pValue>
6.89

>  <Ligand Efficiency>
0.25

>  <Binding Efficiency>
13.18

>  <Surface Efficiency>
9.46

>  <Assay Index>
1182125

>  <Assay Category>


>  <Assay Organism>
Homo sapiens

>  <Target ID>
19

>  <Target Name>
Estrogen receptor alpha

>  <Target Organism>
Homo sapiens

>  <Target Description>
Target is a single protein chain

>  <Sequence Accession>
P03372

>  <Reference>
J Med Chem 61 (18), 8155-8173 (2018)

>  <Pubmed ID>
30053783

>  <DOI>
10.1021/acs.jmedchem.8b00224

$$$$
2284432
Actelion Java MolfileCreator 1.0

 43 48  0  0  0  0  0  0  0  0999 V2000
    0.0000   -0.0000   -0.0000 S   0  0  0  0  0  0  0  0  0  0  0  0
   -0.7923    1.3531   -0.0000 O   0  0  0  0  0  0  0  0  0  0  0  0
    0.7558    1.3531   -0.0000 O   0  0  0  0  0  0  0  0  0  0  0  0
    1.3287   -0.7436   -0.0000 O   0  0  0  0  0  0  0  0  0  0  0  0
   -1.3409   -0.7679   -0.0000 C   0  0  0  0  0  0  0  0  0  0  0  0
    2.6452    0.0488   -0.0000 C   0  0  0  0  0  0  0  0  0  0  0  0
   -2.7061    0.0366   -0.0000 C   0  0  0  0  0  0  0  0  0  0  0  0
   -1.8528   -1.8285   -0.0000 C   0  0  0  0  0  0  0  0  0  0  0  0
    3.9738   -0.7070   -0.0000 C   0  0  0  0  0  0  0  0  0  0  0  0
    2.6208    1.5968   -0.0000 C   0  0  0  0  0  0  0  0  0  0  0  0
   -2.9865    1.4506   -0.0000 O   0  0  0  0  0  0  0  0  0  0  0  0
   -3.8154   -0.7192   -0.0000 C   0  0  0  0  0  0  0  0  0  0  0  0
   -3.1206   -1.1824   -0.0000 C   0  0  0  0  0  0  0  0  0  0  0  0
    5.2903    0.0853   -0.0000 C   0  0  0  0  0  0  0  0  0  0  0  0
    3.9251    2.3892   -0.0000 C   0  0  0  0  0  0  0  0  0  0  0  0
   -4.9490   -0.0609   -0.0000 C   0  0  0  0  0  0  0  0  0  0  0  0
   -4.4492   -1.8285   -0.0000 C   0  0  0  0  0  0  0  0  0  0  0  0
    5.2659    1.6334   -0.0000 C   0  0  0  0  0  0  0  0  0  0  0  0
   -4.9612    1.2433   -0.0000 C   0  0  0  0  0  0  0  0  0  0  0  0
   -6.0705   -0.6948   -0.0000 C   0  0  0  0  0  0  0  0  0  0  0  0
   -5.7901   -2.5964   -0.0000 C   0  0  0  0  0  0  0  0  0  0  0  0
    6.5824    2.4257   -0.0000 C   0  0  0  0  0  0  0  0  0  0  0  0
   -6.0948    1.9016   -0.0000 C   0  0  0  0  0  0  0  0  0  0  0  0
   -7.2041   -0.0366   -0.0000 C   0  0  0  0  0  0  0  0  0  0  0  0
   -5.8023   -4.1323   -0.0000 C   0  0  0  0  0  0  0  0  0  0  0  0
   -7.1310   -1.8163   -0.0000 C   0  0  0  0  0  0  0  0  0  0  0  0
    7.9111    1.6822   -0.0000 C   0  0  0  0  0  0  0  0  0  0  0  0
   -7.2285    1.2677   -0.0000 C   0  0  0  0  0  0  0  0  0  0  0  0
   -7.1553   -4.8881   -0.0000 C   0  0  0  0  0  0  0  0  0  0  0  0
   -8.4718   -2.5720   -0.0000 C   0  0  0  0  0  0  0  0  0  0  0  0
    9.2276    2.4745   -0.0000 C   0  0  0  0  0  0  0  0  0  0  0  0
   -8.3621    1.9260   -0.0000 O   0  0  0  0  0  0  0  0  0  0  0  0
   -8.4962   -4.1079   -0.0000 C   0  0  0  0  0  0  0  0  0  0  0  0
    9.1910    4.0104   -0.0000 C   0  0  0  0  0  0  0  0  0  0  0  0
   10.5441    1.7309   -0.0000 C   0  0  0  0  0  0  0  0  0  0  0  0
   -9.8371   -4.8637   -0.0000 O   0  0  0  0  0  0  0  0  0  0  0  0
   10.4953    4.8027   -0.0000 C   0  0  0  0  0  0  0  0  0  0  0  0
   11.8606    2.5233   -0.0000 C   0  0  0  0  0  0  0  0  0  0  0  0
   10.4587    6.3508   -0.0000 O   0  0  0  0  0  0  0  0  0  0  0  0
   11.8362    4.0592   -0.0000 C   0  0  0  0  0  0  0  0  0  0  0  0
   13.1892    1.7797   -0.0000 O   0  0  0  0  0  0  0  0  0  0  0  0
   11.7630    7.1553   -0.0000 C   0  0  0  0  0  0  0  0  0  0  0  0
   13.1892    0.2560   -0.0000 C   0  0  0  0  0  0  0  0  0  0  0  0
  1  2  2  0  0  0  0
  1  3  2  0  0  0  0
  1  4  1  0  0  0  0
  1  5  1  0  0  0  0
  4  6  1  0  0  0  0
  5  7  1  0  0  0  0
  5  8  1  0  0  0  0
  6  9  2  0  0  0  0
  6 10  1  0  0  0  0
  7 11  1  0  0  0  0
  7 12  1  0  0  0  0
  8 13  1  0  0  0  0
  9 14  1  0  0  0  0
 10 15  2  0  0  0  0
 12 16  1  0  0  0  0
 12 17  2  0  0  0  0
 14 18  2  0  0  0  0
 16 19  2  0  0  0  0
 16 20  1  0  0  0  0
 17 21  1  0  0  0  0
 18 22  1  0  0  0  0
 19 23  1  0  0  0  0
 20 24  2  0  0  0  0
 21 25  2  0  0  0  0
 21 26  1  0  0  0  0
 22 27  2  0  0  0  0
 23 28  2  0  0  0  0
 25 29  1  0  0  0  0
 26 30  2  0  0  0  0
 27 31  1  0  0  0  0
 28 32  1  0  0  0  0
 29 33  2  0  0  0  0
 31 34  2  0  0  0  0
 31 35  1  0  0  0  0
 33 36  1  0  0  0  0
 34 37  1  0  0  0  0
 35 38  2  0  0  0  0
 37 39  1  0  0  0  0
 37 40  2  0  0  0  0
 38 41  1  0  0  0  0
 39 42  1  0  0  0  0
 41 43  1  0  0  0  0
 11 13  1  0  0  0  0
 13 17  1  0  0  0  0
 15 18  1  0  0  0  0
 24 28  1  0  0  0  0
 30 33  1  0  0  0  0
 38 40  1  0  0  0  0
M  END
>  <MolRegNo>
2284432

>  <m>
=

>  <Value>
34.87

>  <Unit>
nM

>  <Type>
Ki

>  <pValue>
7.46

>  <Ligand Efficiency>
0.24

>  <Binding Efficiency>
12.46

>  <Surface Efficiency>
6.69

>  <Assay Index>
1182125

>  <Assay Category>


>  <Assay Organism>
Homo sapiens

>  <Target ID>
19

>  <Target Name>
Estrogen receptor alpha

>  <Target Organism>
Homo sapiens

>  <Target Description>
Target is a single protein chain

>  <Sequence Accession>
P03372

>  <Reference>
J Med Chem 61 (18), 8155-8173 (2018)

>  <Pubmed ID>
30053783

>  <DOI>
10.1021/acs.jmedchem.8b00224

$$$$
2281441
Actelion Java MolfileCreator 1.0

 39 44  0  0  0  0  0  0  0  0999 V2000
    0.0000   -0.0000   -0.0000 S   0  0  0  0  0  0  0  0  0  0  0  0
   -0.7939    1.3557   -0.0000 O   0  0  0  0  0  0  0  0  0  0  0  0
    0.7572    1.3557   -0.0000 O   0  0  0  0  0  0  0  0  0  0  0  0
    1.3312   -0.7450   -0.0000 O   0  0  0  0  0  0  0  0  0  0  0  0
   -1.3434   -0.7694   -0.0000 C   0  0  0  0  0  0  0  0  0  0  0  0
    2.6503    0.0489   -0.0000 C   0  0  0  0  0  0  0  0  0  0  0  0
   -2.7113    0.0366   -0.0000 C   0  0  0  0  0  0  0  0  0  0  0  0
   -1.8564   -1.8320   -0.0000 C   0  0  0  0  0  0  0  0  0  0  0  0
    3.9815   -0.7084   -0.0000 C   0  0  0  0  0  0  0  0  0  0  0  0
    2.6258    1.5999   -0.0000 C   0  0  0  0  0  0  0  0  0  0  0  0
   -2.9922    1.4534   -0.0000 O   0  0  0  0  0  0  0  0  0  0  0  0
   -3.8227   -0.7206   -0.0000 C   0  0  0  0  0  0  0  0  0  0  0  0
   -3.1266   -1.1847   -0.0000 C   0  0  0  0  0  0  0  0  0  0  0  0
    5.3005    0.0855   -0.0000 C   0  0  0  0  0  0  0  0  0  0  0  0
    3.9326    2.3938   -0.0000 C   0  0  0  0  0  0  0  0  0  0  0  0
   -4.9585   -0.0611   -0.0000 C   0  0  0  0  0  0  0  0  0  0  0  0
   -4.4578   -1.8320   -0.0000 C   0  0  0  0  0  0  0  0  0  0  0  0
    5.2761    1.6366   -0.0000 C   0  0  0  0  0  0  0  0  0  0  0  0
   -4.9708    1.2457   -0.0000 C   0  0  0  0  0  0  0  0  0  0  0  0
   -6.0822   -0.6962   -0.0000 C   0  0  0  0  0  0  0  0  0  0  0  0
   -5.8013   -2.5892   -0.0000 C   0  0  0  0  0  0  0  0  0  0  0  0
    6.5951    2.4304   -0.0000 C   0  0  0  0  0  0  0  0  0  0  0  0
   -6.1066    1.9053   -0.0000 C   0  0  0  0  0  0  0  0  0  0  0  0
   -7.2180   -0.0366   -0.0000 C   0  0  0  0  0  0  0  0  0  0  0  0
   -5.8135   -4.1281   -0.0000 C   0  0  0  0  0  0  0  0  0  0  0  0
   -7.1447   -1.8076   -0.0000 C   0  0  0  0  0  0  0  0  0  0  0  0
    7.9264    1.6854   -0.0000 C   0  0  0  0  0  0  0  0  0  0  0  0
   -7.2424    1.2702   -0.0000 C   0  0  0  0  0  0  0  0  0  0  0  0
   -7.1691   -4.8853   -0.0000 C   0  0  0  0  0  0  0  0  0  0  0  0
   -8.4882   -2.5648   -0.0000 C   0  0  0  0  0  0  0  0  0  0  0  0
    9.2454    2.4793   -0.0000 C   0  0  0  0  0  0  0  0  0  0  0  0
   -8.3782    1.9297   -0.0000 O   0  0  0  0  0  0  0  0  0  0  0  0
   -8.5126   -4.1036   -0.0000 C   0  0  0  0  0  0  0  0  0  0  0  0
   10.5644    1.7343   -0.0000 C   0  0  0  0  0  0  0  0  0  0  0  0
    9.2087    4.0181   -0.0000 C   0  0  0  0  0  0  0  0  0  0  0  0
   -9.8560   -4.8608   -0.0000 O   0  0  0  0  0  0  0  0  0  0  0  0
   11.8834    2.5281   -0.0000 C   0  0  0  0  0  0  0  0  0  0  0  0
   10.5155    4.8120   -0.0000 C   0  0  0  0  0  0  0  0  0  0  0  0
   11.8590    4.0792   -0.0000 C   0  0  0  0  0  0  0  0  0  0  0  0
  1  2  2  0  0  0  0
  1  3  2  0  0  0  0
  1  4  1  0  0  0  0
  1  5  1  0  0  0  0
  4  6  1  0  0  0  0
  5  7  1  0  0  0  0
  5  8  1  0  0  0  0
  6  9  2  0  0  0  0
  6 10  1  0  0  0  0
  7 11  1  0  0  0  0
  7 12  1  0  0  0  0
  8 13  1  0  0  0  0
  9 14  1  0  0  0  0
 10 15  2  0  0  0  0
 12 16  1  0  0  0  0
 12 17  2  0  0  0  0
 14 18  2  0  0  0  0
 16 19  2  0  0  0  0
 16 20  1  0  0  0  0
 17 21  1  0  0  0  0
 18 22  1  0  0  0  0
 19 23  1  0  0  0  0
 20 24  2  0  0  0  0
 21 25  2  0  0  0  0
 21 26  1  0  0  0  0
 22 27  2  0  0  0  0
 23 28  2  0  0  0  0
 25 29  1  0  0  0  0
 26 30  2  0  0  0  0
 27 31  1  0  0  0  0
 28 32  1  0  0  0  0
 29 33  2  0  0  0  0
 31 34  2  0  0  0  0
 31 35  1  0  0  0  0
 33 36  1  0  0  0  0
 34 37  1  0  0  0  0
 35 38  2  0  0  0  0
 37 39  2  0  0  0  0
 11 13  1  0  0  0  0
 13 17  1  0  0  0  0
 15 18  1  0  0  0  0
 24 28  1  0  0  0  0
 30 33  1  0  0  0  0
 38 39  1  0  0  0  0
M  END
>  <MolRegNo>
2281441

>  <m>
=

>  <Value>
40.77

>  <Unit>
nM

>  <Type>
Ki

>  <pValue>
7.39

>  <Ligand Efficiency>
0.26

>  <Binding Efficiency>
13.72

>  <Surface Efficiency>
7.94

>  <Assay Index>
1182125

>  <Assay Category>


>  <Assay Organism>
Homo sapiens

>  <Target ID>
19

>  <Target Name>
Estrogen receptor alpha

>  <Target Organism>
Homo sapiens

>  <Target Description>
Target is a single protein chain

>  <Sequence Accession>
P03372

>  <Reference>
J Med Chem 61 (18), 8155-8173 (2018)

>  <Pubmed ID>
30053783

>  <DOI>
10.1021/acs.jmedchem.8b00224

$$$$
2293093
Actelion Java MolfileCreator 1.0

 43 48  0  0  0  0  0  0  0  0999 V2000
    0.0000   -0.0000   -0.0000 S   0  0  0  0  0  0  0  0  0  0  0  0
   -0.7926    1.3536   -0.0000 O   0  0  0  0  0  0  0  0  0  0  0  0
    0.7561    1.3536   -0.0000 O   0  0  0  0  0  0  0  0  0  0  0  0
    1.3292   -0.7439   -0.0000 O   0  0  0  0  0  0  0  0  0  0  0  0
   -1.3414   -0.7682   -0.0000 C   0  0  0  0  0  0  0  0  0  0  0  0
    2.6462    0.0488   -0.0000 C   0  0  0  0  0  0  0  0  0  0  0  0
   -2.7194    0.0366   -0.0000 C   0  0  0  0  0  0  0  0  0  0  0  0
   -1.8535   -1.8292   -0.0000 C   0  0  0  0  0  0  0  0  0  0  0  0
    3.9754   -0.7073   -0.0000 C   0  0  0  0  0  0  0  0  0  0  0  0
    2.6218    1.5975   -0.0000 C   0  0  0  0  0  0  0  0  0  0  0  0
   -2.9998    1.4511   -0.0000 O   0  0  0  0  0  0  0  0  0  0  0  0
   -3.8290   -0.7195   -0.0000 C   0  0  0  0  0  0  0  0  0  0  0  0
   -3.1218   -1.1829   -0.0000 C   0  0  0  0  0  0  0  0  0  0  0  0
    5.2924    0.0854   -0.0000 C   0  0  0  0  0  0  0  0  0  0  0  0
    3.9266    2.3901   -0.0000 C   0  0  0  0  0  0  0  0  0  0  0  0
   -4.9631   -0.0610   -0.0000 C   0  0  0  0  0  0  0  0  0  0  0  0
   -4.4632   -1.8292   -0.0000 C   0  0  0  0  0  0  0  0  0  0  0  0
    5.2680    1.6340   -0.0000 C   0  0  0  0  0  0  0  0  0  0  0  0
    6.6216   -0.6585   -0.0000 C   0  0  0  0  0  0  0  0  0  0  0  0
   -4.9753    1.2438   -0.0000 C   0  0  0  0  0  0  0  0  0  0  0  0
   -6.0850   -0.6951   -0.0000 C   0  0  0  0  0  0  0  0  0  0  0  0
   -5.8045   -2.5852   -0.0000 C   0  0  0  0  0  0  0  0  0  0  0  0
    7.9386    0.1341   -0.0000 C   0  0  0  0  0  0  0  0  0  0  0  0
   -6.1094    1.9023   -0.0000 C   0  0  0  0  0  0  0  0  0  0  0  0
   -7.2191   -0.0366   -0.0000 C   0  0  0  0  0  0  0  0  0  0  0  0
   -5.8167   -4.1217   -0.0000 C   0  0  0  0  0  0  0  0  0  0  0  0
   -7.1459   -1.8048   -0.0000 C   0  0  0  0  0  0  0  0  0  0  0  0
    9.2677   -0.6097   -0.0000 C   0  0  0  0  0  0  0  0  0  0  0  0
   -7.2435    1.2682   -0.0000 C   0  0  0  0  0  0  0  0  0  0  0  0
   -7.1703   -4.8778   -0.0000 C   0  0  0  0  0  0  0  0  0  0  0  0
   -8.4873   -2.5608   -0.0000 C   0  0  0  0  0  0  0  0  0  0  0  0
   10.5725    0.1829   -0.0000 C   0  0  0  0  0  0  0  0  0  0  0  0
    9.2677   -2.1340   -0.0000 C   0  0  0  0  0  0  0  0  0  0  0  0
   -8.3776    1.9267   -0.0000 O   0  0  0  0  0  0  0  0  0  0  0  0
   -8.5117   -4.0973   -0.0000 C   0  0  0  0  0  0  0  0  0  0  0  0
   11.9017   -0.5609   -0.0000 C   0  0  0  0  0  0  0  0  0  0  0  0
   10.5969   -2.8779   -0.0000 C   0  0  0  0  0  0  0  0  0  0  0  0
   -9.8531   -4.8534   -0.0000 O   0  0  0  0  0  0  0  0  0  0  0  0
   13.2187    0.2317   -0.0000 O   0  0  0  0  0  0  0  0  0  0  0  0
   11.9017   -2.0974   -0.0000 C   0  0  0  0  0  0  0  0  0  0  0  0
   10.5969   -4.4022   -0.0000 O   0  0  0  0  0  0  0  0  0  0  0  0
   14.5479   -0.5122   -0.0000 C   0  0  0  0  0  0  0  0  0  0  0  0
    9.2555   -5.1704   -0.0000 C   0  0  0  0  0  0  0  0  0  0  0  0
  1  2  2  0  0  0  0
  1  3  2  0  0  0  0
  1  4  1  0  0  0  0
  1  5  1  0  0  0  0
  4  6  1  0  0  0  0
  5  7  1  0  0  0  0
  5  8  1  0  0  0  0
  6  9  2  0  0  0  0
  6 10  1  0  0  0  0
  7 11  1  0  0  0  0
  7 12  1  0  0  0  0
  8 13  1  0  0  0  0
  9 14  1  0  0  0  0
 10 15  2  0  0  0  0
 12 16  1  0  0  0  0
 12 17  2  0  0  0  0
 14 18  2  0  0  0  0
 14 19  1  0  0  0  0
 16 20  2  0  0  0  0
 16 21  1  0  0  0  0
 17 22  1  0  0  0  0
 19 23  2  0  0  0  0
 20 24  1  0  0  0  0
 21 25  2  0  0  0  0
 22 26  2  0  0  0  0
 22 27  1  0  0  0  0
 23 28  1  0  0  0  0
 24 29  2  0  0  0  0
 26 30  1  0  0  0  0
 27 31  2  0  0  0  0
 28 32  2  0  0  0  0
 28 33  1  0  0  0  0
 29 34  1  0  0  0  0
 30 35  2  0  0  0  0
 32 36  1  0  0  0  0
 33 37  2  0  0  0  0
 35 38  1  0  0  0  0
 36 39  1  0  0  0  0
 36 40  2  0  0  0  0
 37 41  1  0  0  0  0
 39 42  1  0  0  0  0
 41 43  1  0  0  0  0
 11 13  1  0  0  0  0
 13 17  1  0  0  0  0
 15 18  1  0  0  0  0
 25 29  1  0  0  0  0
 31 35  1  0  0  0  0
 37 40  1  0  0  0  0
M  END
>  <MolRegNo>
2293093

>  <m>
=

>  <Value>
251.08

>  <Unit>
nM

>  <Type>
Ki

>  <pValue>
6.6

>  <Ligand Efficiency>
0.21

>  <Binding Efficiency>
11.02

>  <Surface Efficiency>
5.92

>  <Assay Index>
1182125

>  <Assay Category>


>  <Assay Organism>
Homo sapiens

>  <Target ID>
19

>  <Target Name>
Estrogen receptor alpha

>  <Target Organism>
Homo sapiens

>  <Target Description>
Target is a single protein chain

>  <Sequence Accession>
P03372

>  <Reference>
J Med Chem 61 (18), 8155-8173 (2018)

>  <Pubmed ID>
30053783

>  <DOI>
10.1021/acs.jmedchem.8b00224

$$$$
2293618
Actelion Java MolfileCreator 1.0

 41 46  0  0  0  0  0  0  0  0999 V2000
    0.0000   -0.0000   -0.0000 S   0  0  0  0  0  0  0  0  0  0  0  0
   -0.7936    1.3553   -0.0000 O   0  0  0  0  0  0  0  0  0  0  0  0
    0.7570    1.3553   -0.0000 O   0  0  0  0  0  0  0  0  0  0  0  0
    1.3308   -0.7448   -0.0000 O   0  0  0  0  0  0  0  0  0  0  0  0
   -1.3430   -0.7692   -0.0000 C   0  0  0  0  0  0  0  0  0  0  0  0
    2.6495    0.0488   -0.0000 C   0  0  0  0  0  0  0  0  0  0  0  0
   -2.7105    0.0366   -0.0000 C   0  0  0  0  0  0  0  0  0  0  0  0
   -1.8558   -1.8314   -0.0000 C   0  0  0  0  0  0  0  0  0  0  0  0
    3.9803   -0.7082   -0.0000 C   0  0  0  0  0  0  0  0  0  0  0  0
    2.6250    1.5994   -0.0000 C   0  0  0  0  0  0  0  0  0  0  0  0
   -2.9913    1.4529   -0.0000 O   0  0  0  0  0  0  0  0  0  0  0  0
   -3.8216   -0.7204   -0.0000 C   0  0  0  0  0  0  0  0  0  0  0  0
   -3.1256   -1.1843   -0.0000 C   0  0  0  0  0  0  0  0  0  0  0  0
    5.2989    0.0855   -0.0000 C   0  0  0  0  0  0  0  0  0  0  0  0
    3.9315    2.3931   -0.0000 C   0  0  0  0  0  0  0  0  0  0  0  0
   -4.9571   -0.0610   -0.0000 C   0  0  0  0  0  0  0  0  0  0  0  0
   -4.4565   -1.8314   -0.0000 C   0  0  0  0  0  0  0  0  0  0  0  0
    5.2745    1.6361   -0.0000 C   0  0  0  0  0  0  0  0  0  0  0  0
    6.6298   -0.6593   -0.0000 C   0  0  0  0  0  0  0  0  0  0  0  0
   -4.9693    1.2454   -0.0000 C   0  0  0  0  0  0  0  0  0  0  0  0
   -6.0803   -0.6959   -0.0000 C   0  0  0  0  0  0  0  0  0  0  0  0
   -5.7995   -2.5884   -0.0000 C   0  0  0  0  0  0  0  0  0  0  0  0
    7.9484    0.1343   -0.0000 C   0  0  0  0  0  0  0  0  0  0  0  0
   -6.1047    1.9047   -0.0000 C   0  0  0  0  0  0  0  0  0  0  0  0
   -7.2158   -0.0366   -0.0000 C   0  0  0  0  0  0  0  0  0  0  0  0
   -5.8117   -4.1268   -0.0000 C   0  0  0  0  0  0  0  0  0  0  0  0
   -7.1426   -1.8070   -0.0000 C   0  0  0  0  0  0  0  0  0  0  0  0
    9.2792   -0.6105   -0.0000 C   0  0  0  0  0  0  0  0  0  0  0  0
   -7.2402    1.2698   -0.0000 C   0  0  0  0  0  0  0  0  0  0  0  0
   -7.1670   -4.8838   -0.0000 C   0  0  0  0  0  0  0  0  0  0  0  0
   -8.4856   -2.5640   -0.0000 C   0  0  0  0  0  0  0  0  0  0  0  0
    9.2792   -2.1367   -0.0000 C   0  0  0  0  0  0  0  0  0  0  0  0
   10.5856    0.1831   -0.0000 C   0  0  0  0  0  0  0  0  0  0  0  0
   -8.3757    1.9291   -0.0000 O   0  0  0  0  0  0  0  0  0  0  0  0
   -8.5100   -4.1024   -0.0000 C   0  0  0  0  0  0  0  0  0  0  0  0
   10.6101   -2.8814   -0.0000 C   0  0  0  0  0  0  0  0  0  0  0  0
   11.9165   -0.5616   -0.0000 C   0  0  0  0  0  0  0  0  0  0  0  0
   -9.8531   -4.8594   -0.0000 O   0  0  0  0  0  0  0  0  0  0  0  0
   10.6101   -4.4076   -0.0000 O   0  0  0  0  0  0  0  0  0  0  0  0
   11.9287   -2.0878   -0.0000 C   0  0  0  0  0  0  0  0  0  0  0  0
   13.2351    0.2320   -0.0000 O   0  0  0  0  0  0  0  0  0  0  0  0
  1  2  2  0  0  0  0
  1  3  2  0  0  0  0
  1  4  1  0  0  0  0
  1  5  1  0  0  0  0
  4  6  1  0  0  0  0
  5  7  1  0  0  0  0
  5  8  1  0  0  0  0
  6  9  2  0  0  0  0
  6 10  1  0  0  0  0
  7 11  1  0  0  0  0
  7 12  1  0  0  0  0
  8 13  1  0  0  0  0
  9 14  1  0  0  0  0
 10 15  2  0  0  0  0
 12 16  1  0  0  0  0
 12 17  2  0  0  0  0
 14 18  2  0  0  0  0
 14 19  1  0  0  0  0
 16 20  2  0  0  0  0
 16 21  1  0  0  0  0
 17 22  1  0  0  0  0
 19 23  2  0  0  0  0
 20 24  1  0  0  0  0
 21 25  2  0  0  0  0
 22 26  2  0  0  0  0
 22 27  1  0  0  0  0
 23 28  1  0  0  0  0
 24 29  2  0  0  0  0
 26 30  1  0  0  0  0
 27 31  2  0  0  0  0
 28 32  2  0  0  0  0
 28 33  1  0  0  0  0
 29 34  1  0  0  0  0
 30 35  2  0  0  0  0
 32 36  1  0  0  0  0
 33 37  2  0  0  0  0
 35 38  1  0  0  0  0
 36 39  1  0  0  0  0
 36 40  2  0  0  0  0
 37 41  1  0  0  0  0
 11 13  1  0  0  0  0
 13 17  1  0  0  0  0
 15 18  1  0  0  0  0
 25 29  1  0  0  0  0
 31 35  1  0  0  0  0
 37 40  1  0  0  0  0
M  END
>  <MolRegNo>
2293618

>  <m>
=

>  <Value>
634.55

>  <Unit>
nM

>  <Type>
Ki

>  <pValue>
6.2

>  <Ligand Efficiency>
0.21

>  <Binding Efficiency>
10.86

>  <Surface Efficiency>
4.64

>  <Assay Index>
1182125

>  <Assay Category>


>  <Assay Organism>
Homo sapiens

>  <Target ID>
19

>  <Target Name>
Estrogen receptor alpha

>  <Target Organism>
Homo sapiens

>  <Target Description>
Target is a single protein chain

>  <Sequence Accession>
P03372

>  <Reference>
J Med Chem 61 (18), 8155-8173 (2018)

>  <Pubmed ID>
30053783

>  <DOI>
10.1021/acs.jmedchem.8b00224

$$$$
2288676
Actelion Java MolfileCreator 1.0

 41 46  0  0  0  0  0  0  0  0999 V2000
    0.0000   -0.0000   -0.0000 S   0  0  0  0  0  0  0  0  0  0  0  0
   -0.7927    1.3536   -0.0000 O   0  0  0  0  0  0  0  0  0  0  0  0
    0.7561    1.3536   -0.0000 O   0  0  0  0  0  0  0  0  0  0  0  0
    1.3292   -0.7439   -0.0000 O   0  0  0  0  0  0  0  0  0  0  0  0
   -1.3414   -0.7683   -0.0000 C   0  0  0  0  0  0  0  0  0  0  0  0
    2.6463    0.0488   -0.0000 C   0  0  0  0  0  0  0  0  0  0  0  0
   -2.7194    0.0366   -0.0000 C   0  0  0  0  0  0  0  0  0  0  0  0
   -1.8536   -1.8292   -0.0000 C   0  0  0  0  0  0  0  0  0  0  0  0
    3.9755   -0.7073   -0.0000 C   0  0  0  0  0  0  0  0  0  0  0  0
    2.6219    1.5975   -0.0000 C   0  0  0  0  0  0  0  0  0  0  0  0
   -2.9999    1.4512   -0.0000 O   0  0  0  0  0  0  0  0  0  0  0  0
   -3.8292   -0.7195   -0.0000 C   0  0  0  0  0  0  0  0  0  0  0  0
   -3.1219   -1.1829   -0.0000 C   0  0  0  0  0  0  0  0  0  0  0  0
    5.2925    0.0854   -0.0000 C   0  0  0  0  0  0  0  0  0  0  0  0
    3.9267    2.3902   -0.0000 C   0  0  0  0  0  0  0  0  0  0  0  0
   -4.9633   -0.0610   -0.0000 C   0  0  0  0  0  0  0  0  0  0  0  0
   -4.4633   -1.8292   -0.0000 C   0  0  0  0  0  0  0  0  0  0  0  0
    5.2682    1.6341   -0.0000 C   0  0  0  0  0  0  0  0  0  0  0  0
   -4.9755    1.2439   -0.0000 C   0  0  0  0  0  0  0  0  0  0  0  0
   -6.0852   -0.6951   -0.0000 C   0  0  0  0  0  0  0  0  0  0  0  0
   -5.8047   -2.5975   -0.0000 C   0  0  0  0  0  0  0  0  0  0  0  0
    6.5852    2.4268   -0.0000 C   0  0  0  0  0  0  0  0  0  0  0  0
   -6.1096    1.9024   -0.0000 C   0  0  0  0  0  0  0  0  0  0  0  0
   -7.2193   -0.0366   -0.0000 C   0  0  0  0  0  0  0  0  0  0  0  0
   -5.8169   -4.1340   -0.0000 C   0  0  0  0  0  0  0  0  0  0  0  0
   -7.1462   -1.8170   -0.0000 C   0  0  0  0  0  0  0  0  0  0  0  0
    7.9144    1.6829   -0.0000 C   0  0  0  0  0  0  0  0  0  0  0  0
   -7.2437    1.2683   -0.0000 C   0  0  0  0  0  0  0  0  0  0  0  0
   -7.1705   -4.8901   -0.0000 C   0  0  0  0  0  0  0  0  0  0  0  0
   -8.4876   -2.5731   -0.0000 C   0  0  0  0  0  0  0  0  0  0  0  0
    9.2315    2.4755   -0.0000 C   0  0  0  0  0  0  0  0  0  0  0  0
   -8.3778    1.9268   -0.0000 O   0  0  0  0  0  0  0  0  0  0  0  0
   -8.5120   -4.1096   -0.0000 C   0  0  0  0  0  0  0  0  0  0  0  0
   10.5485    1.7317   -0.0000 C   0  0  0  0  0  0  0  0  0  0  0  0
    9.1949    4.0121   -0.0000 C   0  0  0  0  0  0  0  0  0  0  0  0
   -9.8534   -4.8657   -0.0000 O   0  0  0  0  0  0  0  0  0  0  0  0
   11.8655    2.5243   -0.0000 C   0  0  0  0  0  0  0  0  0  0  0  0
   10.4997    4.8048   -0.0000 C   0  0  0  0  0  0  0  0  0  0  0  0
   13.1948    1.7804   -0.0000 O   0  0  0  0  0  0  0  0  0  0  0  0
   11.8411    4.0731   -0.0000 C   0  0  0  0  0  0  0  0  0  0  0  0
   10.4631    6.3535   -0.0000 O   0  0  0  0  0  0  0  0  0  0  0  0
  1  2  2  0  0  0  0
  1  3  2  0  0  0  0
  1  4  1  0  0  0  0
  1  5  1  0  0  0  0
  4  6  1  0  0  0  0
  5  7  1  0  0  0  0
  5  8  1  0  0  0  0
  6  9  2  0  0  0  0
  6 10  1  0  0  0  0
  7 11  1  0  0  0  0
  7 12  1  0  0  0  0
  8 13  1  0  0  0  0
  9 14  1  0  0  0  0
 10 15  2  0  0  0  0
 12 16  1  0  0  0  0
 12 17  2  0  0  0  0
 14 18  2  0  0  0  0
 16 19  2  0  0  0  0
 16 20  1  0  0  0  0
 17 21  1  0  0  0  0
 18 22  1  0  0  0  0
 19 23  1  0  0  0  0
 20 24  2  0  0  0  0
 21 25  2  0  0  0  0
 21 26  1  0  0  0  0
 22 27  2  0  0  0  0
 23 28  2  0  0  0  0
 25 29  1  0  0  0  0
 26 30  2  0  0  0  0
 27 31  1  0  0  0  0
 28 32  1  0  0  0  0
 29 33  2  0  0  0  0
 31 34  2  0  0  0  0
 31 35  1  0  0  0  0
 33 36  1  0  0  0  0
 34 37  1  0  0  0  0
 35 38  2  0  0  0  0
 37 39  1  0  0  0  0
 37 40  2  0  0  0  0
 38 41  1  0  0  0  0
 11 13  1  0  0  0  0
 13 17  1  0  0  0  0
 15 18  1  0  0  0  0
 24 28  1  0  0  0  0
 30 33  1  0  0  0  0
 38 40  1  0  0  0  0
M  END
>  <MolRegNo>
2288676

>  <m>
=

>  <Value>
88.13

>  <Unit>
nM

>  <Type>
Ki

>  <pValue>
7.05

>  <Ligand Efficiency>
0.24

>  <Binding Efficiency>
12.36

>  <Surface Efficiency>
5.28

>  <Assay Index>
1182125

>  <Assay Category>


>  <Assay Organism>
Homo sapiens

>  <Target ID>
19

>  <Target Name>
Estrogen receptor alpha

>  <Target Organism>
Homo sapiens

>  <Target Description>
Target is a single protein chain

>  <Sequence Accession>
P03372

>  <Reference>
J Med Chem 61 (18), 8155-8173 (2018)

>  <Pubmed ID>
30053783

>  <DOI>
10.1021/acs.jmedchem.8b00224

$$$$
2285260
Actelion Java MolfileCreator 1.0

 31 35  0  0  0  0  0  0  0  0999 V2000
    0.0000   -0.0000   -0.0000 S   0  0  0  0  0  0  0  0  0  0  0  0
   -0.7982    1.3631   -0.0000 O   0  0  0  0  0  0  0  0  0  0  0  0
    0.7614    1.3631   -0.0000 O   0  0  0  0  0  0  0  0  0  0  0  0
    1.3386   -0.7491   -0.0000 O   0  0  0  0  0  0  0  0  0  0  0  0
   -1.3509   -0.7737   -0.0000 C   0  0  0  0  0  0  0  0  0  0  0  0
    2.6649    0.0491   -0.0000 C   0  0  0  0  0  0  0  0  0  0  0  0
   -2.7386    0.0368   -0.0000 C   0  0  0  0  0  0  0  0  0  0  0  0
   -1.8666   -1.8421   -0.0000 C   0  0  0  0  0  0  0  0  0  0  0  0
    4.0034   -0.7123   -0.0000 C   0  0  0  0  0  0  0  0  0  0  0  0
    2.6403    1.6087   -0.0000 C   0  0  0  0  0  0  0  0  0  0  0  0
   -3.0210    1.4614   -0.0000 O   0  0  0  0  0  0  0  0  0  0  0  0
   -3.8561   -0.7245   -0.0000 C   0  0  0  0  0  0  0  0  0  0  0  0
   -3.1438   -1.1912   -0.0000 C   0  0  0  0  0  0  0  0  0  0  0  0
    5.3297    0.0860   -0.0000 C   0  0  0  0  0  0  0  0  0  0  0  0
    3.9543    2.4070   -0.0000 C   0  0  0  0  0  0  0  0  0  0  0  0
   -4.9982   -0.0614   -0.0000 C   0  0  0  0  0  0  0  0  0  0  0  0
   -4.4947   -1.8421   -0.0000 C   0  0  0  0  0  0  0  0  0  0  0  0
    5.3052    1.6456   -0.0000 C   0  0  0  0  0  0  0  0  0  0  0  0
   -5.0104    1.2526   -0.0000 C   0  0  0  0  0  0  0  0  0  0  0  0
   -6.1280   -0.7000   -0.0000 C   0  0  0  0  0  0  0  0  0  0  0  0
   -5.8455   -2.6035   -0.0000 C   0  0  0  0  0  0  0  0  0  0  0  0
   -6.1525    1.9158   -0.0000 C   0  0  0  0  0  0  0  0  0  0  0  0
   -7.2701   -0.0368   -0.0000 C   0  0  0  0  0  0  0  0  0  0  0  0
   -5.8578   -4.1508   -0.0000 C   0  0  0  0  0  0  0  0  0  0  0  0
   -7.1964   -1.8175   -0.0000 C   0  0  0  0  0  0  0  0  0  0  0  0
   -7.2946    1.2772   -0.0000 C   0  0  0  0  0  0  0  0  0  0  0  0
   -7.2209   -4.9122   -0.0000 C   0  0  0  0  0  0  0  0  0  0  0  0
   -8.5472   -2.5789   -0.0000 C   0  0  0  0  0  0  0  0  0  0  0  0
   -8.4367    1.9403   -0.0000 O   0  0  0  0  0  0  0  0  0  0  0  0
   -8.5718   -4.1263   -0.0000 C   0  0  0  0  0  0  0  0  0  0  0  0
   -9.9227   -4.8876   -0.0000 O   0  0  0  0  0  0  0  0  0  0  0  0
  1  2  2  0  0  0  0
  1  3  2  0  0  0  0
  1  4  1  0  0  0  0
  5  1  1  1  0  0  0
  4  6  1  0  0  0  0
  5  7  1  0  0  0  0
  5  8  1  0  0  0  0
  6  9  2  0  0  0  0
  6 10  1  0  0  0  0
  7 11  1  1  0  0  0
  7 12  1  0  0  0  0
  8 13  1  0  0  0  0
  9 14  1  0  0  0  0
 10 15  2  0  0  0  0
 12 16  1  0  0  0  0
 12 17  2  0  0  0  0
 14 18  2  0  0  0  0
 16 19  2  0  0  0  0
 16 20  1  0  0  0  0
 17 21  1  0  0  0  0
 19 22  1  0  0  0  0
 20 23  2  0  0  0  0
 21 24  2  0  0  0  0
 21 25  1  0  0  0  0
 22 26  2  0  0  0  0
 24 27  1  0  0  0  0
 25 28  2  0  0  0  0
 26 29  1  0  0  0  0
 27 30  2  0  0  0  0
 30 31  1  0  0  0  0
 13 11  1  1  0  0  0
 13 17  1  0  0  0  0
 15 18  1  0  0  0  0
 23 26  1  0  0  0  0
 28 30  1  0  0  0  0
M  END
>  <MolRegNo>
2285260

>  <m>
=

>  <Value>
43.03

>  <Unit>
nM

>  <Type>
Ki

>  <pValue>
7.37

>  <Ligand Efficiency>
0.32

>  <Binding Efficiency>
16.88

>  <Surface Efficiency>
7.92

>  <Assay Index>
1182125

>  <Assay Category>


>  <Assay Organism>
Homo sapiens

>  <Target ID>
19

>  <Target Name>
Estrogen receptor alpha

>  <Target Organism>
Homo sapiens

>  <Target Description>
Target is a single protein chain

>  <Sequence Accession>
P03372

>  <Reference>
J Med Chem 61 (18), 8155-8173 (2018)

>  <Pubmed ID>
30053783

>  <DOI>
10.1021/acs.jmedchem.8b00224

$$$$
2304671
Actelion Java MolfileCreator 1.0

 77 77  0  0  0  0  0  0  0  0999 V2000
    0.0000   -0.0000   -0.0000 S   0  0  0  0  0  0  0  0  0  0  0  0
    2.5444   -1.4742   -0.0000 S   0  0  0  0  0  0  0  0  0  0  0  0
   -1.3126    0.7674   -0.0000 C   0  0  0  0  0  0  0  0  0  0  0  0
    3.8167   -2.1809   -0.0000 C   0  0  0  0  0  0  0  0  0  0  0  0
   -1.3328    2.2819   -0.0000 C   0  0  0  0  0  0  0  0  0  0  0  0
    5.0687   -1.4338   -0.0000 C   0  0  0  0  0  0  0  0  0  0  0  0
   -2.6252    3.0291   -0.0000 N   0  0  0  0  0  0  0  0  0  0  0  0
   -0.0606    3.0291   -0.0000 C   0  0  0  0  0  0  0  0  0  0  0  0
    5.0485    0.0808   -0.0000 N   0  0  0  0  0  0  0  0  0  0  0  0
    6.3409   -2.1406   -0.0000 C   0  0  0  0  0  0  0  0  0  0  0  0
   -3.9378    2.3223   -0.0000 C   0  0  0  0  0  0  0  0  0  0  0  0
    1.2116    2.3223   -0.0000 O   0  0  0  0  0  0  0  0  0  0  0  0
   -0.0808    4.5436   -0.0000 N   0  0  0  0  0  0  0  0  0  0  0  0
    3.7561    0.8481   -0.0000 C   0  0  0  0  0  0  0  0  0  0  0  0
    7.5929   -1.3934   -0.0000 O   0  0  0  0  0  0  0  0  0  0  0  0
    6.3207   -3.6147   -0.0000 N   0  0  0  0  0  0  0  0  0  0  0  0
   -5.2302    3.0695   -0.0000 O   0  0  0  0  0  0  0  0  0  0  0  0
   -3.9580    0.8481   -0.0000 C   0  0  0  0  0  0  0  0  0  0  0  0
    1.1914    5.3110   -0.0000 C   0  0  0  0  0  0  0  0  0  0  0  0
    2.4435    0.1212   -0.0000 O   0  0  0  0  0  0  0  0  0  0  0  0
    3.7359    2.3627   -0.0000 C   0  0  0  0  0  0  0  0  0  0  0  0
    7.5727   -4.3215   -0.0000 C   0  0  0  0  0  0  0  0  0  0  0  0
   -2.6858    0.1212   -0.0000 N   0  0  0  0  0  0  0  0  0  0  0  0
   -5.2504    0.1212   -0.0000 C   0  0  0  0  0  0  0  0  0  0  0  0
    2.4435    4.5840   -0.0000 C   0  0  0  0  0  0  0  0  0  0  0  0
    1.1713    6.8256   -0.0000 C   0  0  0  0  0  0  0  0  0  0  0  0
    2.4233    3.1099   -0.0000 N   0  0  0  0  0  0  0  0  0  0  0  0
    4.9879    3.1099   -0.0000 C   0  0  0  0  0  0  0  0  0  0  0  0
    8.8248   -3.5743   -0.0000 C   0  0  0  0  0  0  0  0  0  0  0  0
    7.5525   -5.7957   -0.0000 C   0  0  0  0  0  0  0  0  0  0  0  0
   -5.2706   -1.3530   -0.0000 C   0  0  0  0  0  0  0  0  0  0  0  0
    3.7157    5.3514   -0.0000 O   0  0  0  0  0  0  0  0  0  0  0  0
   -0.1414    7.5727   -0.0000 C   0  0  0  0  0  0  0  0  0  0  0  0
    2.4233    7.5727   -0.0000 C   0  0  0  0  0  0  0  0  0  0  0  0
    6.2601    2.4031   -0.0000 C   0  0  0  0  0  0  0  0  0  0  0  0
   10.0970   -4.2811   -0.0000 O   0  0  0  0  0  0  0  0  0  0  0  0
    8.8046   -2.0598   -0.0000 N   0  0  0  0  0  0  0  0  0  0  0  0
    6.2601   -6.5227   -0.0000 C   0  0  0  0  0  0  0  0  0  0  0  0
   -6.5832   -2.0800   -0.0000 C   0  0  0  0  0  0  0  0  0  0  0  0
   -1.4540    6.8659   -0.0000 C   0  0  0  0  0  0  0  0  0  0  0  0
    7.5122    3.1503   -0.0000 C   0  0  0  0  0  0  0  0  0  0  0  0
    6.2399    0.9289   -0.0000 C   0  0  0  0  0  0  0  0  0  0  0  0
   10.0768   -1.3126   -0.0000 C   0  0  0  0  0  0  0  0  0  0  0  0
    4.9475   -5.7553   -0.0000 C   0  0  0  0  0  0  0  0  0  0  0  0
   -6.6034   -3.5541   -0.0000 N   0  0  0  0  0  0  0  0  0  0  0  0
   11.3490   -2.0194   -0.0000 C   0  0  0  0  0  0  0  0  0  0  0  0
   10.0566    0.2019   -0.0000 C   0  0  0  0  0  0  0  0  0  0  0  0
    3.6551   -6.4823   -0.0000 N   0  0  0  0  0  0  0  0  0  0  0  0
   -7.9160   -4.2811   -0.0000 C   0  0  0  0  0  0  0  0  0  0  0  0
   11.3288   -3.4936   -0.0000 O   0  0  0  0  0  0  0  0  0  0  0  0
   12.6212   -1.2722   -0.0000 N   0  0  0  0  0  0  0  0  0  0  0  0
   11.3288    0.9693   -0.0000 C   0  0  0  0  0  0  0  0  0  0  0  0
    3.6349   -7.9564   -0.0000 C   0  0  0  0  0  0  0  0  0  0  0  0
   -7.9362   -5.7553   -0.0000 N   0  0  0  0  0  0  0  0  0  0  0  0
   -9.2286   -3.5138   -0.0000 N   0  0  0  0  0  0  0  0  0  0  0  0
   13.8733   -1.9790   -0.0000 C   0  0  0  0  0  0  0  0  0  0  0  0
   12.6010    0.2423   -0.0000 C   0  0  0  0  0  0  0  0  0  0  0  0
   11.3086    2.4839   -0.0000 C   0  0  0  0  0  0  0  0  0  0  0  0
   12.6010    1.7569   -0.0000 C   0  0  0  0  0  0  0  0  0  0  0  0
    4.8869   -8.6632   -0.0000 N   0  0  0  0  0  0  0  0  0  0  0  0
    2.3223   -8.6632   -0.0000 N   0  0  0  0  0  0  0  0  0  0  0  0
   15.1455   -1.2318   -0.0000 C   0  0  0  0  0  0  0  0  0  0  0  0
   13.8531   -3.4532   -0.0000 C   0  0  0  0  0  0  0  0  0  0  0  0
   15.1253    0.2827   -0.0000 O   0  0  0  0  0  0  0  0  0  0  0  0
   16.4177   -1.9386   -0.0000 N   0  0  0  0  0  0  0  0  0  0  0  0
   15.1253   -4.1600   -0.0000 C   0  0  0  0  0  0  0  0  0  0  0  0
   17.6697   -1.1914   -0.0000 C   0  0  0  0  0  0  0  0  0  0  0  0
   15.1051   -5.6341   -0.0000 C   0  0  0  0  0  0  0  0  0  0  0  0
   16.3975   -3.4128   -0.0000 C   0  0  0  0  0  0  0  0  0  0  0  0
   18.9419   -1.8982   -0.0000 C   0  0  0  0  0  0  0  0  0  0  0  0
   17.6495    0.3231   -0.0000 C   0  0  0  0  0  0  0  0  0  0  0  0
   18.9217   -3.3724   -0.0000 O   0  0  0  0  0  0  0  0  0  0  0  0
   20.1940   -1.1511   -0.0000 N   0  0  0  0  0  0  0  0  0  0  0  0
   18.9217    1.0905   -0.0000 C   0  0  0  0  0  0  0  0  0  0  0  0
   18.9016    2.6050   -0.0000 C   0  0  0  0  0  0  0  0  0  0  0  0
   20.1536    3.3522   -0.0000 O   0  0  0  0  0  0  0  0  0  0  0  0
   17.5889    3.3522   -0.0000 N   0  0  0  0  0  0  0  0  0  0  0  0
  1  2  1  0  0  0  0
  1  3  1  0  0  0  0
  2  4  1  0  0  0  0
  3  5  1  0  0  0  0
  4  6  1  0  0  0  0
  5  7  1  1  0  0  0
  5  8  1  0  0  0  0
  6  9  1  0  0  0  0
  6 10  1  1  0  0  0
  7 11  1  0  0  0  0
  8 12  2  0  0  0  0
  8 13  1  0  0  0  0
  9 14  1  0  0  0  0
 10 15  2  0  0  0  0
 10 16  1  0  0  0  0
 11 17  2  0  0  0  0
 11 18  1  0  0  0  0
 19 13  1  1  0  0  0
 14 20  2  0  0  0  0
 14 21  1  0  0  0  0
 22 16  1  6  0  0  0
 18 23  1  1  0  0  0
 18 24  1  0  0  0  0
 19 25  1  0  0  0  0
 19 26  1  0  0  0  0
 21 27  1  0  0  0  0
 21 28  1  1  0  0  0
 22 29  1  0  0  0  0
 22 30  1  0  0  0  0
 24 31  1  0  0  0  0
 25 32  2  0  0  0  0
 26 33  1  0  0  0  0
 26 34  1  6  0  0  0
 28 35  1  0  0  0  0
 29 36  2  0  0  0  0
 29 37  1  0  0  0  0
 30 38  1  0  0  0  0
 31 39  1  0  0  0  0
 33 40  1  0  0  0  0
 35 41  1  0  0  0  0
 35 42  1  0  0  0  0
 43 37  1  1  0  0  0
 38 44  1  0  0  0  0
 39 45  1  0  0  0  0
 43 46  1  0  0  0  0
 43 47  1  0  0  0  0
 44 48  1  0  0  0  0
 45 49  1  0  0  0  0
 46 50  2  0  0  0  0
 46 51  1  0  0  0  0
 47 52  1  0  0  0  0
 48 53  1  0  0  0  0
 49 54  2  0  0  0  0
 49 55  1  0  0  0  0
 56 51  1  6  0  0  0
 52 57  1  0  0  0  0
 52 58  1  0  0  0  0
 52 59  1  0  0  0  0
 53 60  2  0  0  0  0
 53 61  1  0  0  0  0
 56 62  1  0  0  0  0
 56 63  1  0  0  0  0
 62 64  2  0  0  0  0
 62 65  1  0  0  0  0
 63 66  1  0  0  0  0
 67 65  1  1  0  0  0
 66 68  1  0  0  0  0
 66 69  1  0  0  0  0
 67 70  1  0  0  0  0
 67 71  1  0  0  0  0
 70 72  2  0  0  0  0
 70 73  1  0  0  0  0
 71 74  1  0  0  0  0
 74 75  1  0  0  0  0
 75 76  2  0  0  0  0
 75 77  1  0  0  0  0
 25 27  1  0  0  0  0
M  END
>  <MolRegNo>
2304671

>  <m>
=

>  <Value>
0.07

>  <Unit>
nM

>  <Type>
Ki

>  <pValue>
10.15

>  <Ligand Efficiency>
0

>  <Binding Efficiency>
9

>  <Surface Efficiency>
0

>  <Assay Index>
1194218

>  <Assay Category>


>  <Assay Organism>
Homo sapiens

>  <Target ID>
19

>  <Target Name>
Estrogen receptor alpha

>  <Target Organism>
Homo sapiens

>  <Target Description>
Target is a single protein chain

>  <Sequence Accession>
P03372

>  <Reference>
Bioorg Med Chem Lett 28 (17), 2827-2836 (2018)

>  <Pubmed ID>
30025900

>  <DOI>
10.1016/j.bmcl.2018.05.062

$$$$
2315181
Actelion Java MolfileCreator 1.0

 76 76  0  0  0  0  0  0  0  0999 V2000
    0.0000   -0.0000   -0.0000 S   0  0  0  0  0  0  0  0  0  0  0  0
    2.5444   -1.4741   -0.0000 S   0  0  0  0  0  0  0  0  0  0  0  0
   -1.3126    0.7673   -0.0000 C   0  0  0  0  0  0  0  0  0  0  0  0
    3.8165   -2.1809   -0.0000 C   0  0  0  0  0  0  0  0  0  0  0  0
   -1.3328    2.2818   -0.0000 C   0  0  0  0  0  0  0  0  0  0  0  0
    5.0685   -1.4337   -0.0000 C   0  0  0  0  0  0  0  0  0  0  0  0
   -2.6251    3.0290   -0.0000 N   0  0  0  0  0  0  0  0  0  0  0  0
   -0.0606    3.0290   -0.0000 C   0  0  0  0  0  0  0  0  0  0  0  0
    5.0483    0.0808   -0.0000 N   0  0  0  0  0  0  0  0  0  0  0  0
    6.3407   -2.1405   -0.0000 C   0  0  0  0  0  0  0  0  0  0  0  0
   -3.9377    2.3222   -0.0000 C   0  0  0  0  0  0  0  0  0  0  0  0
    1.2116    2.3222   -0.0000 O   0  0  0  0  0  0  0  0  0  0  0  0
   -0.0808    4.5435   -0.0000 N   0  0  0  0  0  0  0  0  0  0  0  0
    3.7560    0.8481   -0.0000 C   0  0  0  0  0  0  0  0  0  0  0  0
    7.5927   -1.3933   -0.0000 O   0  0  0  0  0  0  0  0  0  0  0  0
    6.3205   -3.6146   -0.0000 N   0  0  0  0  0  0  0  0  0  0  0  0
   -5.2301    3.0694   -0.0000 O   0  0  0  0  0  0  0  0  0  0  0  0
   -3.9579    0.8481   -0.0000 C   0  0  0  0  0  0  0  0  0  0  0  0
    1.1914    5.3108   -0.0000 C   0  0  0  0  0  0  0  0  0  0  0  0
    2.4434    0.1212   -0.0000 O   0  0  0  0  0  0  0  0  0  0  0  0
    3.7358    2.3626   -0.0000 C   0  0  0  0  0  0  0  0  0  0  0  0
    7.5725   -4.3214   -0.0000 C   0  0  0  0  0  0  0  0  0  0  0  0
   -2.6857    0.1212   -0.0000 N   0  0  0  0  0  0  0  0  0  0  0  0
   -5.2503    0.1212   -0.0000 C   0  0  0  0  0  0  0  0  0  0  0  0
    2.4434    4.5839   -0.0000 C   0  0  0  0  0  0  0  0  0  0  0  0
    1.1712    6.8253   -0.0000 C   0  0  0  0  0  0  0  0  0  0  0  0
    2.4232    3.1098   -0.0000 N   0  0  0  0  0  0  0  0  0  0  0  0
    4.9877    3.1098   -0.0000 C   0  0  0  0  0  0  0  0  0  0  0  0
    8.8245   -3.5742   -0.0000 C   0  0  0  0  0  0  0  0  0  0  0  0
    7.5523   -5.7955   -0.0000 C   0  0  0  0  0  0  0  0  0  0  0  0
   -5.2705   -1.3530   -0.0000 C   0  0  0  0  0  0  0  0  0  0  0  0
    3.7156    5.3512   -0.0000 O   0  0  0  0  0  0  0  0  0  0  0  0
   -0.1414    7.5725   -0.0000 C   0  0  0  0  0  0  0  0  0  0  0  0
    2.4232    7.5725   -0.0000 C   0  0  0  0  0  0  0  0  0  0  0  0
    6.2599    2.4030   -0.0000 C   0  0  0  0  0  0  0  0  0  0  0  0
   10.0967   -4.2810   -0.0000 O   0  0  0  0  0  0  0  0  0  0  0  0
    8.8043   -2.0597   -0.0000 N   0  0  0  0  0  0  0  0  0  0  0  0
    6.2599   -6.5224   -0.0000 C   0  0  0  0  0  0  0  0  0  0  0  0
   -6.5830   -2.0799   -0.0000 C   0  0  0  0  0  0  0  0  0  0  0  0
   -1.4539    6.8657   -0.0000 C   0  0  0  0  0  0  0  0  0  0  0  0
    7.5119    3.1502   -0.0000 C   0  0  0  0  0  0  0  0  0  0  0  0
    6.2397    0.9289   -0.0000 C   0  0  0  0  0  0  0  0  0  0  0  0
   10.0765   -1.3126   -0.0000 C   0  0  0  0  0  0  0  0  0  0  0  0
    4.9474   -5.7551   -0.0000 C   0  0  0  0  0  0  0  0  0  0  0  0
   -6.6032   -3.5540   -0.0000 N   0  0  0  0  0  0  0  0  0  0  0  0
   11.3486   -2.0193   -0.0000 C   0  0  0  0  0  0  0  0  0  0  0  0
   10.0563    0.2019   -0.0000 C   0  0  0  0  0  0  0  0  0  0  0  0
    3.6550   -6.4821   -0.0000 N   0  0  0  0  0  0  0  0  0  0  0  0
   -7.9158   -4.2810   -0.0000 C   0  0  0  0  0  0  0  0  0  0  0  0
   11.3284   -3.4934   -0.0000 O   0  0  0  0  0  0  0  0  0  0  0  0
   12.6208   -1.2722   -0.0000 N   0  0  0  0  0  0  0  0  0  0  0  0
   11.3284    0.9693   -0.0000 C   0  0  0  0  0  0  0  0  0  0  0  0
    3.6348   -7.9562   -0.0000 C   0  0  0  0  0  0  0  0  0  0  0  0
   -7.9360   -5.7551   -0.0000 N   0  0  0  0  0  0  0  0  0  0  0  0
   -9.2283   -3.5136   -0.0000 N   0  0  0  0  0  0  0  0  0  0  0  0
   13.8728   -1.9789   -0.0000 C   0  0  0  0  0  0  0  0  0  0  0  0
   12.6006    0.2423   -0.0000 C   0  0  0  0  0  0  0  0  0  0  0  0
   11.3083    2.4838   -0.0000 C   0  0  0  0  0  0  0  0  0  0  0  0
    4.8868   -8.6629   -0.0000 N   0  0  0  0  0  0  0  0  0  0  0  0
    2.3222   -8.6629   -0.0000 N   0  0  0  0  0  0  0  0  0  0  0  0
   15.1450   -1.2318   -0.0000 C   0  0  0  0  0  0  0  0  0  0  0  0
   13.8526   -3.4531   -0.0000 C   0  0  0  0  0  0  0  0  0  0  0  0
   15.1248    0.2827   -0.0000 O   0  0  0  0  0  0  0  0  0  0  0  0
   16.4172   -1.9386   -0.0000 N   0  0  0  0  0  0  0  0  0  0  0  0
   15.1248   -4.1598   -0.0000 C   0  0  0  0  0  0  0  0  0  0  0  0
   17.6691   -1.1914   -0.0000 C   0  0  0  0  0  0  0  0  0  0  0  0
   15.1046   -5.6339   -0.0000 C   0  0  0  0  0  0  0  0  0  0  0  0
   16.3970   -3.4127   -0.0000 C   0  0  0  0  0  0  0  0  0  0  0  0
   18.9413   -1.8982   -0.0000 C   0  0  0  0  0  0  0  0  0  0  0  0
   17.6489    0.3231   -0.0000 C   0  0  0  0  0  0  0  0  0  0  0  0
   18.9211   -3.3723   -0.0000 O   0  0  0  0  0  0  0  0  0  0  0  0
   20.1933   -1.1510   -0.0000 N   0  0  0  0  0  0  0  0  0  0  0  0
   18.9211    1.0904   -0.0000 C   0  0  0  0  0  0  0  0  0  0  0  0
   18.9009    2.6049   -0.0000 C   0  0  0  0  0  0  0  0  0  0  0  0
   20.1529    3.3521   -0.0000 O   0  0  0  0  0  0  0  0  0  0  0  0
   17.5884    3.3521   -0.0000 N   0  0  0  0  0  0  0  0  0  0  0  0
  1  2  1  0  0  0  0
  1  3  1  0  0  0  0
  2  4  1  0  0  0  0
  3  5  1  0  0  0  0
  4  6  1  0  0  0  0
  5  7  1  1  0  0  0
  5  8  1  0  0  0  0
  6  9  1  0  0  0  0
  6 10  1  1  0  0  0
  7 11  1  0  0  0  0
  8 12  2  0  0  0  0
  8 13  1  0  0  0  0
  9 14  1  0  0  0  0
 10 15  2  0  0  0  0
 10 16  1  0  0  0  0
 11 17  2  0  0  0  0
 11 18  1  0  0  0  0
 19 13  1  1  0  0  0
 14 20  2  0  0  0  0
 14 21  1  0  0  0  0
 22 16  1  6  0  0  0
 18 23  1  1  0  0  0
 18 24  1  0  0  0  0
 19 25  1  0  0  0  0
 19 26  1  0  0  0  0
 21 27  1  0  0  0  0
 21 28  1  1  0  0  0
 22 29  1  0  0  0  0
 22 30  1  0  0  0  0
 24 31  1  0  0  0  0
 25 32  2  0  0  0  0
 26 33  1  0  0  0  0
 26 34  1  6  0  0  0
 28 35  1  0  0  0  0
 29 36  2  0  0  0  0
 29 37  1  0  0  0  0
 30 38  1  0  0  0  0
 31 39  1  0  0  0  0
 33 40  1  0  0  0  0
 35 41  1  0  0  0  0
 35 42  1  0  0  0  0
 43 37  1  1  0  0  0
 38 44  1  0  0  0  0
 39 45  1  0  0  0  0
 43 46  1  0  0  0  0
 43 47  1  0  0  0  0
 44 48  1  0  0  0  0
 45 49  1  0  0  0  0
 46 50  2  0  0  0  0
 46 51  1  0  0  0  0
 47 52  1  0  0  0  0
 48 53  1  0  0  0  0
 49 54  2  0  0  0  0
 49 55  1  0  0  0  0
 56 51  1  6  0  0  0
 52 57  1  0  0  0  0
 52 58  1  0  0  0  0
 53 59  2  0  0  0  0
 53 60  1  0  0  0  0
 56 61  1  0  0  0  0
 56 62  1  0  0  0  0
 61 63  2  0  0  0  0
 61 64  1  0  0  0  0
 62 65  1  0  0  0  0
 66 64  1  1  0  0  0
 65 67  1  0  0  0  0
 65 68  1  0  0  0  0
 66 69  1  0  0  0  0
 66 70  1  0  0  0  0
 69 71  2  0  0  0  0
 69 72  1  0  0  0  0
 70 73  1  0  0  0  0
 73 74  1  0  0  0  0
 74 75  2  0  0  0  0
 74 76  1  0  0  0  0
 25 27  1  0  0  0  0
M  END
>  <MolRegNo>
2315181

>  <m>
=

>  <Value>
11

>  <Unit>
nM

>  <Type>
Ki

>  <pValue>
7.96

>  <Ligand Efficiency>
0

>  <Binding Efficiency>
7.14

>  <Surface Efficiency>
0

>  <Assay Index>
1194218

>  <Assay Category>


>  <Assay Organism>
Homo sapiens

>  <Target ID>
19

>  <Target Name>
Estrogen receptor alpha

>  <Target Organism>
Homo sapiens

>  <Target Description>
Target is a single protein chain

>  <Sequence Accession>
P03372

>  <Reference>
Bioorg Med Chem Lett 28 (17), 2827-2836 (2018)

>  <Pubmed ID>
30025900

>  <DOI>
10.1016/j.bmcl.2018.05.062

$$$$
2310593
Actelion Java MolfileCreator 1.0

 74 74  0  0  0  0  0  0  0  0999 V2000
    0.0000   -0.0000   -0.0000 S   0  0  0  0  0  0  0  0  0  0  0  0
    2.5463   -1.4752   -0.0000 S   0  0  0  0  0  0  0  0  0  0  0  0
   -1.3136    0.7679   -0.0000 C   0  0  0  0  0  0  0  0  0  0  0  0
    3.8195   -2.1825   -0.0000 C   0  0  0  0  0  0  0  0  0  0  0  0
   -1.3338    2.2836   -0.0000 C   0  0  0  0  0  0  0  0  0  0  0  0
    5.0724   -1.4348   -0.0000 C   0  0  0  0  0  0  0  0  0  0  0  0
   -2.6271    3.0313   -0.0000 N   0  0  0  0  0  0  0  0  0  0  0  0
   -0.0606    3.0313   -0.0000 C   0  0  0  0  0  0  0  0  0  0  0  0
    5.0522    0.0808   -0.0000 N   0  0  0  0  0  0  0  0  0  0  0  0
    6.3455   -2.1421   -0.0000 C   0  0  0  0  0  0  0  0  0  0  0  0
   -3.9407    2.3240   -0.0000 C   0  0  0  0  0  0  0  0  0  0  0  0
    1.2125    2.3240   -0.0000 O   0  0  0  0  0  0  0  0  0  0  0  0
   -0.0808    4.5470   -0.0000 N   0  0  0  0  0  0  0  0  0  0  0  0
    3.7588    0.8488   -0.0000 C   0  0  0  0  0  0  0  0  0  0  0  0
    7.5985   -1.3944   -0.0000 O   0  0  0  0  0  0  0  0  0  0  0  0
    6.3253   -3.6174   -0.0000 N   0  0  0  0  0  0  0  0  0  0  0  0
   -5.2341    3.0717   -0.0000 O   0  0  0  0  0  0  0  0  0  0  0  0
   -3.9609    0.8488   -0.0000 C   0  0  0  0  0  0  0  0  0  0  0  0
    1.1923    5.3149   -0.0000 C   0  0  0  0  0  0  0  0  0  0  0  0
    2.4453    0.1213   -0.0000 O   0  0  0  0  0  0  0  0  0  0  0  0
    3.7386    2.3644   -0.0000 C   0  0  0  0  0  0  0  0  0  0  0  0
    7.5783   -4.3247   -0.0000 C   0  0  0  0  0  0  0  0  0  0  0  0
   -2.6878    0.1213   -0.0000 N   0  0  0  0  0  0  0  0  0  0  0  0
   -5.2543    0.1213   -0.0000 C   0  0  0  0  0  0  0  0  0  0  0  0
    2.4453    4.5874   -0.0000 C   0  0  0  0  0  0  0  0  0  0  0  0
    1.1721    6.8306   -0.0000 C   0  0  0  0  0  0  0  0  0  0  0  0
    2.4250    3.1121   -0.0000 N   0  0  0  0  0  0  0  0  0  0  0  0
    4.9916    3.1121   -0.0000 C   0  0  0  0  0  0  0  0  0  0  0  0
    8.8312   -3.5769   -0.0000 C   0  0  0  0  0  0  0  0  0  0  0  0
    7.5581   -5.7999   -0.0000 C   0  0  0  0  0  0  0  0  0  0  0  0
   -5.2745   -1.3540   -0.0000 C   0  0  0  0  0  0  0  0  0  0  0  0
    3.7184    5.3553   -0.0000 O   0  0  0  0  0  0  0  0  0  0  0  0
   -0.1415    7.5783   -0.0000 C   0  0  0  0  0  0  0  0  0  0  0  0
    2.4250    7.5783   -0.0000 C   0  0  0  0  0  0  0  0  0  0  0  0
    6.2647    2.4048   -0.0000 C   0  0  0  0  0  0  0  0  0  0  0  0
   10.1044   -4.2843   -0.0000 O   0  0  0  0  0  0  0  0  0  0  0  0
    8.8110   -2.0613   -0.0000 N   0  0  0  0  0  0  0  0  0  0  0  0
    6.2647   -6.5274   -0.0000 C   0  0  0  0  0  0  0  0  0  0  0  0
   -4.0215   -2.0613   -0.0000 C   0  0  0  0  0  0  0  0  0  0  0  0
   -1.4550    6.8710   -0.0000 C   0  0  0  0  0  0  0  0  0  0  0  0
    7.5177    3.1526   -0.0000 C   0  0  0  0  0  0  0  0  0  0  0  0
    6.2445    0.9296   -0.0000 C   0  0  0  0  0  0  0  0  0  0  0  0
   10.0842   -1.3136   -0.0000 C   0  0  0  0  0  0  0  0  0  0  0  0
    4.9511   -5.7595   -0.0000 C   0  0  0  0  0  0  0  0  0  0  0  0
   -4.0417   -3.5365   -0.0000 C   0  0  0  0  0  0  0  0  0  0  0  0
   11.3573   -2.0209   -0.0000 C   0  0  0  0  0  0  0  0  0  0  0  0
   10.0640    0.2021   -0.0000 C   0  0  0  0  0  0  0  0  0  0  0  0
    3.6578   -6.4870   -0.0000 N   0  0  0  0  0  0  0  0  0  0  0  0
   -5.3351   -4.2438   -0.0000 N   0  0  0  0  0  0  0  0  0  0  0  0
   11.3371   -3.4961   -0.0000 O   0  0  0  0  0  0  0  0  0  0  0  0
   12.6305   -1.2732   -0.0000 N   0  0  0  0  0  0  0  0  0  0  0  0
   11.3371    0.9700   -0.0000 C   0  0  0  0  0  0  0  0  0  0  0  0
    3.6376   -7.9622   -0.0000 C   0  0  0  0  0  0  0  0  0  0  0  0
   13.8834   -1.9805   -0.0000 C   0  0  0  0  0  0  0  0  0  0  0  0
   12.6103    0.2425   -0.0000 C   0  0  0  0  0  0  0  0  0  0  0  0
   11.3169    2.4857   -0.0000 C   0  0  0  0  0  0  0  0  0  0  0  0
    4.8905   -8.6696   -0.0000 N   0  0  0  0  0  0  0  0  0  0  0  0
    2.3240   -8.6696   -0.0000 N   0  0  0  0  0  0  0  0  0  0  0  0
   15.1566   -1.2327   -0.0000 C   0  0  0  0  0  0  0  0  0  0  0  0
   13.8632   -3.4557   -0.0000 C   0  0  0  0  0  0  0  0  0  0  0  0
   15.1364    0.2829   -0.0000 O   0  0  0  0  0  0  0  0  0  0  0  0
   16.4297   -1.9400   -0.0000 N   0  0  0  0  0  0  0  0  0  0  0  0
   15.1364   -4.1630   -0.0000 C   0  0  0  0  0  0  0  0  0  0  0  0
   17.6827   -1.1923   -0.0000 C   0  0  0  0  0  0  0  0  0  0  0  0
   15.1161   -5.6382   -0.0000 C   0  0  0  0  0  0  0  0  0  0  0  0
   16.4095   -3.4153   -0.0000 C   0  0  0  0  0  0  0  0  0  0  0  0
   18.9558   -1.8996   -0.0000 C   0  0  0  0  0  0  0  0  0  0  0  0
   17.6624    0.3233   -0.0000 C   0  0  0  0  0  0  0  0  0  0  0  0
   18.9356   -3.3749   -0.0000 O   0  0  0  0  0  0  0  0  0  0  0  0
   20.2087   -1.1519   -0.0000 N   0  0  0  0  0  0  0  0  0  0  0  0
   18.9356    1.0913   -0.0000 C   0  0  0  0  0  0  0  0  0  0  0  0
   18.9154    2.6069   -0.0000 C   0  0  0  0  0  0  0  0  0  0  0  0
   20.1683    3.3547   -0.0000 O   0  0  0  0  0  0  0  0  0  0  0  0
   17.6018    3.3547   -0.0000 N   0  0  0  0  0  0  0  0  0  0  0  0
  1  2  1  0  0  0  0
  1  3  1  0  0  0  0
  2  4  1  0  0  0  0
  3  5  1  0  0  0  0
  4  6  1  0  0  0  0
  5  7  1  1  0  0  0
  5  8  1  0  0  0  0
  6  9  1  0  0  0  0
  6 10  1  1  0  0  0
  7 11  1  0  0  0  0
  8 12  2  0  0  0  0
  8 13  1  0  0  0  0
  9 14  1  0  0  0  0
 10 15  2  0  0  0  0
 10 16  1  0  0  0  0
 11 17  2  0  0  0  0
 11 18  1  0  0  0  0
 19 13  1  1  0  0  0
 14 20  2  0  0  0  0
 14 21  1  0  0  0  0
 22 16  1  6  0  0  0
 18 23  1  1  0  0  0
 18 24  1  0  0  0  0
 19 25  1  0  0  0  0
 19 26  1  0  0  0  0
 21 27  1  0  0  0  0
 21 28  1  1  0  0  0
 22 29  1  0  0  0  0
 22 30  1  0  0  0  0
 24 31  1  0  0  0  0
 25 32  2  0  0  0  0
 26 33  1  0  0  0  0
 26 34  1  6  0  0  0
 28 35  1  0  0  0  0
 29 36  2  0  0  0  0
 29 37  1  0  0  0  0
 30 38  1  0  0  0  0
 31 39  1  0  0  0  0
 33 40  1  0  0  0  0
 35 41  1  0  0  0  0
 35 42  1  0  0  0  0
 43 37  1  1  0  0  0
 38 44  1  0  0  0  0
 39 45  1  0  0  0  0
 43 46  1  0  0  0  0
 43 47  1  0  0  0  0
 44 48  1  0  0  0  0
 45 49  1  0  0  0  0
 46 50  2  0  0  0  0
 46 51  1  0  0  0  0
 47 52  1  0  0  0  0
 48 53  1  0  0  0  0
 54 51  1  6  0  0  0
 52 55  1  0  0  0  0
 52 56  1  0  0  0  0
 53 57  2  0  0  0  0
 53 58  1  0  0  0  0
 54 59  1  0  0  0  0
 54 60  1  0  0  0  0
 59 61  2  0  0  0  0
 59 62  1  0  0  0  0
 60 63  1  0  0  0  0
 64 62  1  1  0  0  0
 63 65  1  0  0  0  0
 63 66  1  0  0  0  0
 64 67  1  0  0  0  0
 64 68  1  0  0  0  0
 67 69  2  0  0  0  0
 67 70  1  0  0  0  0
 68 71  1  0  0  0  0
 71 72  1  0  0  0  0
 72 73  2  0  0  0  0
 72 74  1  0  0  0  0
 25 27  1  0  0  0  0
M  END
>  <MolRegNo>
2310593

>  <m>
=

>  <Value>
25

>  <Unit>
nM

>  <Type>
Ki

>  <pValue>
7.6

>  <Ligand Efficiency>
0

>  <Binding Efficiency>
7

>  <Surface Efficiency>
0

>  <Assay Index>
1194218

>  <Assay Category>


>  <Assay Organism>
Homo sapiens

>  <Target ID>
19

>  <Target Name>
Estrogen receptor alpha

>  <Target Organism>
Homo sapiens

>  <Target Description>
Target is a single protein chain

>  <Sequence Accession>
P03372

>  <Reference>
Bioorg Med Chem Lett 28 (17), 2827-2836 (2018)

>  <Pubmed ID>
30025900

>  <DOI>
10.1016/j.bmcl.2018.05.062

$$$$
2309175
Actelion Java MolfileCreator 1.0

 90 92  0  0  0  0  0  0  0  0999 V2000
    0.0000   -0.0000   -0.0000 S   0  0  0  0  0  0  0  0  0  0  0  0
   -0.0118    1.5093   -0.0000 C   0  0  0  0  0  0  0  0  0  0  0  0
   -1.3088   -0.7311   -0.0000 C   0  0  0  0  0  0  0  0  0  0  0  0
    1.2734    2.2757   -0.0000 C   0  0  0  0  0  0  0  0  0  0  0  0
    1.2617    3.7850   -0.0000 C   0  0  0  0  0  0  0  0  0  0  0  0
    2.5469    4.5396   -0.0000 N   0  0  0  0  0  0  0  0  0  0  0  0
   -0.0472    4.5396   -0.0000 C   0  0  0  0  0  0  0  0  0  0  0  0
    3.8321    3.8085   -0.0000 C   0  0  0  0  0  0  0  0  0  0  0  0
   -0.0590    6.0489   -0.0000 O   0  0  0  0  0  0  0  0  0  0  0  0
   -1.3560    3.8085   -0.0000 N   0  0  0  0  0  0  0  0  0  0  0  0
    3.8203    2.3229   -0.0000 O   0  0  0  0  0  0  0  0  0  0  0  0
    5.1174    4.5632   -0.0000 C   0  0  0  0  0  0  0  0  0  0  0  0
   -2.6648    4.5632   -0.0000 C   0  0  0  0  0  0  0  0  0  0  0  0
    6.4026    3.8321   -0.0000 N   0  0  0  0  0  0  0  0  0  0  0  0
    5.1056    6.0725   -0.0000 C   0  0  0  0  0  0  0  0  0  0  0  0
   -3.9618    3.8321   -0.0000 C   0  0  0  0  0  0  0  0  0  0  0  0
   -2.6766    6.0725   -0.0000 C   0  0  0  0  0  0  0  0  0  0  0  0
    7.6878    4.5868   -0.0000 C   0  0  0  0  0  0  0  0  0  0  0  0
    3.7968    6.8389   -0.0000 C   0  0  0  0  0  0  0  0  0  0  0  0
   -3.9736    2.3464   -0.0000 O   0  0  0  0  0  0  0  0  0  0  0  0
   -5.2707    4.5868   -0.0000 N   0  0  0  0  0  0  0  0  0  0  0  0
   -3.9736    6.8389   -0.0000 C   0  0  0  0  0  0  0  0  0  0  0  0
    7.6761    6.0960   -0.0000 O   0  0  0  0  0  0  0  0  0  0  0  0
    8.9731    3.8557   -0.0000 C   0  0  0  0  0  0  0  0  0  0  0  0
    3.7850    8.3482   -0.0000 C   0  0  0  0  0  0  0  0  0  0  0  0
    2.4879    6.0960   -0.0000 C   0  0  0  0  0  0  0  0  0  0  0  0
   -6.5795    3.8557   -0.0000 C   0  0  0  0  0  0  0  0  0  0  0  0
   -3.9854    8.3482   -0.0000 C   0  0  0  0  0  0  0  0  0  0  0  0
   10.2583    4.6103   -0.0000 N   0  0  0  0  0  0  0  0  0  0  0  0
    8.9613    2.3700   -0.0000 C   0  0  0  0  0  0  0  0  0  0  0  0
   -7.8883    4.6103   -0.0000 C   0  0  0  0  0  0  0  0  0  0  0  0
   -6.5913    2.3700   -0.0000 C   0  0  0  0  0  0  0  0  0  0  0  0
   -5.2942    9.1028   -0.0000 N   0  0  0  0  0  0  0  0  0  0  0  0
   11.5789    3.9383   -0.0000 C   0  0  0  0  0  0  0  0  0  0  0  0
    7.6525    1.6272   -0.0000 C   0  0  0  0  0  0  0  0  0  0  0  0
   -7.9001    6.1196   -0.0000 O   0  0  0  0  0  0  0  0  0  0  0  0
   -9.1971    3.8793   -0.0000 N   0  0  0  0  0  0  0  0  0  0  0  0
   -7.9001    1.6272   -0.0000 C   0  0  0  0  0  0  0  0  0  0  0  0
   -5.3060   10.6121   -0.0000 C   0  0  0  0  0  0  0  0  0  0  0  0
   11.6497    2.4526   -0.0000 O   0  0  0  0  0  0  0  0  0  0  0  0
   12.8288    4.7636   -0.0000 C   0  0  0  0  0  0  0  0  0  0  0  0
    7.6407    0.1415   -0.0000 C   0  0  0  0  0  0  0  0  0  0  0  0
    6.3437    2.3936   -0.0000 C   0  0  0  0  0  0  0  0  0  0  0  0
  -10.5059    4.6339   -0.0000 C   0  0  0  0  0  0  0  0  0  0  0  0
   -7.9119    0.1415   -0.0000 C   0  0  0  0  0  0  0  0  0  0  0  0
   -9.2089    2.3936   -0.0000 C   0  0  0  0  0  0  0  0  0  0  0  0
   -6.6148   11.3785   -0.0000 N   0  0  0  0  0  0  0  0  0  0  0  0
   -4.0208   11.3785   -0.0000 N   0  0  0  0  0  0  0  0  0  0  0  0
   14.2084    4.2330   -0.0000 N   0  0  0  0  0  0  0  0  0  0  0  0
   12.8878    6.2729   -0.0000 C   0  0  0  0  0  0  0  0  0  0  0  0
  -11.8148    3.9029   -0.0000 C   0  0  0  0  0  0  0  0  0  0  0  0
  -10.5177    6.1432   -0.0000 C   0  0  0  0  0  0  0  0  0  0  0  0
   14.5857    2.8063   -0.0000 C   0  0  0  0  0  0  0  0  0  0  0  0
   15.1399    5.4121   -0.0000 C   0  0  0  0  0  0  0  0  0  0  0  0
   14.3263    6.6620   -0.0000 C   0  0  0  0  0  0  0  0  0  0  0  0
  -11.8265    2.4172   -0.0000 O   0  0  0  0  0  0  0  0  0  0  0  0
  -13.1236    4.6575   -0.0000 N   0  0  0  0  0  0  0  0  0  0  0  0
  -11.8265    6.9096   -0.0000 C   0  0  0  0  0  0  0  0  0  0  0  0
   13.5127    1.7569   -0.0000 O   0  0  0  0  0  0  0  0  0  0  0  0
   16.0242    2.4290   -0.0000 C   0  0  0  0  0  0  0  0  0  0  0  0
  -14.4324    3.9265   -0.0000 C   0  0  0  0  0  0  0  0  0  0  0  0
  -11.8383    8.4189   -0.0000 C   0  0  0  0  0  0  0  0  0  0  0  0
  -13.1354    6.1668   -0.0000 C   0  0  0  0  0  0  0  0  0  0  0  0
   17.0618    3.4902   -0.0000 N   0  0  0  0  0  0  0  0  0  0  0  0
   16.3897    1.0022   -0.0000 C   0  0  0  0  0  0  0  0  0  0  0  0
  -15.7412    4.6811   -0.0000 C   0  0  0  0  0  0  0  0  0  0  0  0
  -14.4442    2.4408   -0.0000 C   0  0  0  0  0  0  0  0  0  0  0  0
   15.3285   -0.0472   -0.0000 C   0  0  0  0  0  0  0  0  0  0  0  0
  -15.7530    6.1904   -0.0000 O   0  0  0  0  0  0  0  0  0  0  0  0
  -17.0500    3.9500   -0.0000 N   0  0  0  0  0  0  0  0  0  0  0  0
  -15.7530    1.6979   -0.0000 C   0  0  0  0  0  0  0  0  0  0  0  0
   13.8428    0.2004   -0.0000 N   0  0  0  0  0  0  0  0  0  0  0  0
   15.5526   -1.5211   -0.0000 C   0  0  0  0  0  0  0  0  0  0  0  0
  -18.3589    4.7047   -0.0000 C   0  0  0  0  0  0  0  0  0  0  0  0
  -15.7648    0.2122   -0.0000 C   0  0  0  0  0  0  0  0  0  0  0  0
  -17.0618    2.4644   -0.0000 C   0  0  0  0  0  0  0  0  0  0  0  0
   13.1472   -1.1202   -0.0000 C   0  0  0  0  0  0  0  0  0  0  0  0
   14.2084   -2.1932   -0.0000 N   0  0  0  0  0  0  0  0  0  0  0  0
  -19.6677    3.9736   -0.0000 C   0  0  0  0  0  0  0  0  0  0  0  0
  -18.3706    6.2139   -0.0000 C   0  0  0  0  0  0  0  0  0  0  0  0
  -19.6795    2.4879   -0.0000 O   0  0  0  0  0  0  0  0  0  0  0  0
  -20.9765    4.7283   -0.0000 N   0  0  0  0  0  0  0  0  0  0  0  0
  -19.6795    6.9804   -0.0000 O   0  0  0  0  0  0  0  0  0  0  0  0
  -22.3561    4.1269   -0.0000 C   0  0  0  0  0  0  0  0  0  0  0  0
  -21.1416    6.2375   -0.0000 C   0  0  0  0  0  0  0  0  0  0  0  0
  -22.6744    2.6766   -0.0000 C   0  0  0  0  0  0  0  0  0  0  0  0
  -23.3701    5.2471   -0.0000 C   0  0  0  0  0  0  0  0  0  0  0  0
  -22.6273    6.5559   -0.0000 C   0  0  0  0  0  0  0  0  0  0  0  0
  -21.6368    1.6272   -0.0000 O   0  0  0  0  0  0  0  0  0  0  0  0
  -24.1365    2.2993   -0.0000 N   0  0  0  0  0  0  0  0  0  0  0  0
  1  2  1  0  0  0  0
  1  3  1  0  0  0  0
  2  4  1  0  0  0  0
  4  5  1  0  0  0  0
  5  6  1  1  0  0  0
  5  7  1  0  0  0  0
  6  8  1  0  0  0  0
  7  9  2  0  0  0  0
  7 10  1  0  0  0  0
  8 11  2  0  0  0  0
  8 12  1  0  0  0  0
 13 10  1  6  0  0  0
 12 14  1  6  0  0  0
 12 15  1  0  0  0  0
 13 16  1  0  0  0  0
 13 17  1  0  0  0  0
 14 18  1  0  0  0  0
 15 19  1  0  0  0  0
 16 20  2  0  0  0  0
 16 21  1  0  0  0  0
 17 22  1  0  0  0  0
 18 23  2  0  0  0  0
 18 24  1  0  0  0  0
 19 25  1  0  0  0  0
 19 26  1  0  0  0  0
 27 21  1  1  0  0  0
 22 28  1  0  0  0  0
 24 29  1  1  0  0  0
 24 30  1  0  0  0  0
 27 31  1  0  0  0  0
 27 32  1  0  0  0  0
 28 33  1  0  0  0  0
 29 34  1  0  0  0  0
 30 35  1  0  0  0  0
 31 36  2  0  0  0  0
 31 37  1  0  0  0  0
 32 38  1  0  0  0  0
 33 39  1  0  0  0  0
 34 40  2  0  0  0  0
 41 34  1  6  0  0  0
 35 42  1  0  0  0  0
 35 43  1  0  0  0  0
 44 37  1  6  0  0  0
 38 45  1  0  0  0  0
 38 46  1  0  0  0  0
 39 47  2  0  0  0  0
 39 48  1  0  0  0  0
 41 49  1  0  0  0  0
 41 50  1  0  0  0  0
 44 51  1  0  0  0  0
 44 52  1  0  0  0  0
 49 53  1  0  0  0  0
 49 54  1  0  0  0  0
 50 55  1  0  0  0  0
 51 56  2  0  0  0  0
 51 57  1  0  0  0  0
 52 58  1  0  0  0  0
 53 59  2  0  0  0  0
 53 60  1  0  0  0  0
 61 57  1  1  0  0  0
 58 62  1  0  0  0  0
 58 63  1  0  0  0  0
 60 64  1  1  0  0  0
 60 65  1  0  0  0  0
 61 66  1  0  0  0  0
 61 67  1  0  0  0  0
 65 68  1  0  0  0  0
 66 69  2  0  0  0  0
 66 70  1  0  0  0  0
 67 71  1  0  0  0  0
 68 72  1  0  0  0  0
 68 73  2  0  0  0  0
 74 70  1  6  0  0  0
 71 75  1  0  0  0  0
 71 76  1  0  0  0  0
 72 77  1  0  0  0  0
 73 78  1  0  0  0  0
 74 79  1  0  0  0  0
 74 80  1  0  0  0  0
 79 81  2  0  0  0  0
 79 82  1  0  0  0  0
 80 83  1  0  0  0  0
 82 84  1  0  0  0  0
 82 85  1  0  0  0  0
 84 86  1  6  0  0  0
 84 87  1  0  0  0  0
 85 88  1  0  0  0  0
 86 89  2  0  0  0  0
 86 90  1  0  0  0  0
 54 55  1  0  0  0  0
 77 78  2  0  0  0  0
 87 88  1  0  0  0  0
M  END
>  <MolRegNo>
2309175

>  <m>
=

>  <Value>
185

>  <Unit>
nM

>  <Type>
Ki

>  <pValue>
6.73

>  <Ligand Efficiency>
0

>  <Binding Efficiency>
5.22

>  <Surface Efficiency>
0

>  <Assay Index>
1194216

>  <Assay Category>


>  <Assay Organism>
Homo sapiens

>  <Target ID>
19

>  <Target Name>
Estrogen receptor alpha

>  <Target Organism>
Homo sapiens

>  <Target Description>
Target is a single protein chain

>  <Sequence Accession>
P03372

>  <Reference>
Bioorg Med Chem Lett 28 (17), 2827-2836 (2018)

>  <Pubmed ID>
30025900

>  <DOI>
10.1016/j.bmcl.2018.05.062

$$$$
2315351
Actelion Java MolfileCreator 1.0

102106  0  0  0  0  0  0  0  0999 V2000
    0.0000   -0.0000   -0.0000 S   0  0  0  0  0  0  0  0  0  0  0  0
    1.2756    0.7531   -0.0000 C   0  0  0  0  0  0  0  0  0  0  0  0
   -1.3217    0.7531   -0.0000 C   0  0  0  0  0  0  0  0  0  0  0  0
    2.5513    0.0307   -0.0000 C   0  0  0  0  0  0  0  0  0  0  0  0
    2.5359   -1.4601   -0.0000 C   0  0  0  0  0  0  0  0  0  0  0  0
    1.2295   -2.1824   -0.0000 N   0  0  0  0  0  0  0  0  0  0  0  0
    3.8115   -2.1824   -0.0000 C   0  0  0  0  0  0  0  0  0  0  0  0
    1.2142   -3.6732   -0.0000 C   0  0  0  0  0  0  0  0  0  0  0  0
    3.7962   -3.6732   -0.0000 O   0  0  0  0  0  0  0  0  0  0  0  0
    5.0872   -1.4293   -0.0000 N   0  0  0  0  0  0  0  0  0  0  0  0
    2.4898   -4.3955   -0.0000 O   0  0  0  0  0  0  0  0  0  0  0  0
   -0.0922   -4.3955   -0.0000 C   0  0  0  0  0  0  0  0  0  0  0  0
    6.3628   -2.1517   -0.0000 C   0  0  0  0  0  0  0  0  0  0  0  0
   -0.1076   -5.8863   -0.0000 N   0  0  0  0  0  0  0  0  0  0  0  0
   -1.4140   -3.6425   -0.0000 C   0  0  0  0  0  0  0  0  0  0  0  0
    6.3474   -3.6425   -0.0000 C   0  0  0  0  0  0  0  0  0  0  0  0
    7.6384   -1.3986   -0.0000 C   0  0  0  0  0  0  0  0  0  0  0  0
    1.1680   -6.6087   -0.0000 C   0  0  0  0  0  0  0  0  0  0  0  0
   -1.4293   -2.1209   -0.0000 C   0  0  0  0  0  0  0  0  0  0  0  0
    5.0410   -4.3648   -0.0000 O   0  0  0  0  0  0  0  0  0  0  0  0
    7.6230   -4.3648   -0.0000 N   0  0  0  0  0  0  0  0  0  0  0  0
    7.6230    0.1230   -0.0000 C   0  0  0  0  0  0  0  0  0  0  0  0
    2.4437   -5.8556   -0.0000 O   0  0  0  0  0  0  0  0  0  0  0  0
    1.1527   -8.0995   -0.0000 C   0  0  0  0  0  0  0  0  0  0  0  0
   -2.7357   -1.3678   -0.0000 C   0  0  0  0  0  0  0  0  0  0  0  0
   -0.1383   -1.3678   -0.0000 C   0  0  0  0  0  0  0  0  0  0  0  0
    7.6077   -5.8556   -0.0000 C   0  0  0  0  0  0  0  0  0  0  0  0
    8.8987    0.8760   -0.0000 C   0  0  0  0  0  0  0  0  0  0  0  0
    2.4283   -8.8218   -0.0000 N   0  0  0  0  0  0  0  0  0  0  0  0
   -0.1537   -8.8218   -0.0000 C   0  0  0  0  0  0  0  0  0  0  0  0
    6.3013   -6.5779   -0.0000 C   0  0  0  0  0  0  0  0  0  0  0  0
    8.8833   -6.5779   -0.0000 C   0  0  0  0  0  0  0  0  0  0  0  0
    8.8833    2.3976   -0.0000 N   0  0  0  0  0  0  0  0  0  0  0  0
    2.4129  -10.3126   -0.0000 C   0  0  0  0  0  0  0  0  0  0  0  0
   -1.4754   -8.0687   -0.0000 C   0  0  0  0  0  0  0  0  0  0  0  0
    4.9949   -5.8249   -0.0000 O   0  0  0  0  0  0  0  0  0  0  0  0
    6.2859   -8.5144   -0.0000 N   0  0  0  0  0  0  0  0  0  0  0  0
   10.1589   -5.8249   -0.0000 C   0  0  0  0  0  0  0  0  0  0  0  0
    7.5769    3.1507   -0.0000 C   0  0  0  0  0  0  0  0  0  0  0  0
    3.6886  -11.0350   -0.0000 O   0  0  0  0  0  0  0  0  0  0  0  0
    1.1066  -11.0350   -0.0000 C   0  0  0  0  0  0  0  0  0  0  0  0
   -1.4908   -6.5472   -0.0000 C   0  0  0  0  0  0  0  0  0  0  0  0
   -2.7818   -8.7911   -0.0000 C   0  0  0  0  0  0  0  0  0  0  0  0
    7.7614   -9.7440   -0.0000 C   0  0  0  0  0  0  0  0  0  0  0  0
   11.4346   -6.5472   -0.0000 C   0  0  0  0  0  0  0  0  0  0  0  0
   10.1436   -4.3033   -0.0000 C   0  0  0  0  0  0  0  0  0  0  0  0
    7.5616    4.6722   -0.0000 N   0  0  0  0  0  0  0  0  0  0  0  0
    6.2706    2.4283   -0.0000 N   0  0  0  0  0  0  0  0  0  0  0  0
    0.9375  -12.5104   -0.0000 N   0  0  0  0  0  0  0  0  0  0  0  0
   -0.2766  -10.4048   -0.0000 C   0  0  0  0  0  0  0  0  0  0  0  0
    9.1599   -9.2214   -0.0000 C   0  0  0  0  0  0  0  0  0  0  0  0
    7.4847  -11.2040   -0.0000 C   0  0  0  0  0  0  0  0  0  0  0  0
    2.0287  -13.4940   -0.0000 C   0  0  0  0  0  0  0  0  0  0  0  0
   -0.5533  -12.8024   -0.0000 C   0  0  0  0  0  0  0  0  0  0  0  0
   -1.3064  -11.5114   -0.0000 C   0  0  0  0  0  0  0  0  0  0  0  0
    9.3905   -7.7306   -0.0000 O   0  0  0  0  0  0  0  0  0  0  0  0
   10.2973  -10.1743   -0.0000 N   0  0  0  0  0  0  0  0  0  0  0  0
    6.0554  -11.6958   -0.0000 C   0  0  0  0  0  0  0  0  0  0  0  0
    3.4427  -13.0176   -0.0000 O   0  0  0  0  0  0  0  0  0  0  0  0
    1.7060  -14.9541   -0.0000 C   0  0  0  0  0  0  0  0  0  0  0  0
   10.0206  -11.6344   -0.0000 C   0  0  0  0  0  0  0  0  0  0  0  0
    4.8874  -10.7122   -0.0000 C   0  0  0  0  0  0  0  0  0  0  0  0
    5.7788  -13.1559   -0.0000 C   0  0  0  0  0  0  0  0  0  0  0  0
    0.2613  -15.3998   -0.0000 N   0  0  0  0  0  0  0  0  0  0  0  0
    2.7511  -15.9992   -0.0000 C   0  0  0  0  0  0  0  0  0  0  0  0
   11.1579  -12.5872   -0.0000 C   0  0  0  0  0  0  0  0  0  0  0  0
    8.5913  -12.1262   -0.0000 C   0  0  0  0  0  0  0  0  0  0  0  0
    2.3515  -17.4285   -0.0000 C   0  0  0  0  0  0  0  0  0  0  0  0
   10.8813  -14.0473   -0.0000 O   0  0  0  0  0  0  0  0  0  0  0  0
   12.5411  -12.0647   -0.0000 N   0  0  0  0  0  0  0  0  0  0  0  0
    8.2993  -13.6016   -0.0000 C   0  0  0  0  0  0  0  0  0  0  0  0
    0.9375  -17.9510   -0.0000 N   0  0  0  0  0  0  0  0  0  0  0  0
    3.2736  -18.5812   -0.0000 C   0  0  0  0  0  0  0  0  0  0  0  0
   13.6784  -13.0176   -0.0000 C   0  0  0  0  0  0  0  0  0  0  0  0
    9.3597  -14.6621   -0.0000 N   0  0  0  0  0  0  0  0  0  0  0  0
    6.9468  -14.2317   -0.0000 C   0  0  0  0  0  0  0  0  0  0  0  0
    0.9990  -19.4265   -0.0000 C   0  0  0  0  0  0  0  0  0  0  0  0
    2.4437  -19.8261   -0.0000 N   0  0  0  0  0  0  0  0  0  0  0  0
   15.0617  -12.4950   -0.0000 C   0  0  0  0  0  0  0  0  0  0  0  0
   13.4018  -14.4776   -0.0000 C   0  0  0  0  0  0  0  0  0  0  0  0
    8.5913  -15.9377   -0.0000 C   0  0  0  0  0  0  0  0  0  0  0  0
    7.1466  -15.6918   -0.0000 N   0  0  0  0  0  0  0  0  0  0  0  0
   16.1990  -13.4479   -0.0000 O   0  0  0  0  0  0  0  0  0  0  0  0
   15.3229  -10.9889   -0.0000 N   0  0  0  0  0  0  0  0  0  0  0  0
   14.5391  -15.4305   -0.0000 C   0  0  0  0  0  0  0  0  0  0  0  0
   16.6447  -10.3126   -0.0000 C   0  0  0  0  0  0  0  0  0  0  0  0
   14.2164   -9.8977   -0.0000 C   0  0  0  0  0  0  0  0  0  0  0  0
   14.4162  -16.9059   -0.0000 N   0  0  0  0  0  0  0  0  0  0  0  0
   15.9992  -15.0463   -0.0000 C   0  0  0  0  0  0  0  0  0  0  0  0
   17.9203  -11.0350   -0.0000 C   0  0  0  0  0  0  0  0  0  0  0  0
   16.4141   -8.8372   -0.0000 C   0  0  0  0  0  0  0  0  0  0  0  0
   14.9541   -8.5913   -0.0000 C   0  0  0  0  0  0  0  0  0  0  0  0
   15.7994  -17.4439   -0.0000 C   0  0  0  0  0  0  0  0  0  0  0  0
   16.7369  -16.3219   -0.0000 N   0  0  0  0  0  0  0  0  0  0  0  0
   17.9664  -12.4950   -0.0000 O   0  0  0  0  0  0  0  0  0  0  0  0
   19.1498  -10.1436   -0.0000 N   0  0  0  0  0  0  0  0  0  0  0  0
   20.4869  -10.7583   -0.0000 C   0  0  0  0  0  0  0  0  0  0  0  0
   21.7011   -9.8823   -0.0000 C   0  0  0  0  0  0  0  0  0  0  0  0
   20.6099  -12.2338   -0.0000 C   0  0  0  0  0  0  0  0  0  0  0  0
   21.5628   -8.3761   -0.0000 O   0  0  0  0  0  0  0  0  0  0  0  0
   23.0536  -10.4971   -0.0000 N   0  0  0  0  0  0  0  0  0  0  0  0
   21.9470  -12.8485   -0.0000 O   0  0  0  0  0  0  0  0  0  0  0  0
  1  2  1  0  0  0  0
  1  3  1  0  0  0  0
  2  4  1  0  0  0  0
  4  5  1  0  0  0  0
  5  6  1  1  0  0  0
  5  7  1  0  0  0  0
  6  8  1  0  0  0  0
  7  9  2  0  0  0  0
  7 10  1  0  0  0  0
  8 11  2  0  0  0  0
  8 12  1  0  0  0  0
 13 10  1  1  0  0  0
 12 14  1  1  0  0  0
 12 15  1  0  0  0  0
 13 16  1  0  0  0  0
 13 17  1  0  0  0  0
 14 18  1  0  0  0  0
 15 19  1  0  0  0  0
 16 20  2  0  0  0  0
 16 21  1  0  0  0  0
 17 22  1  0  0  0  0
 18 23  2  0  0  0  0
 18 24  1  0  0  0  0
 19 25  1  0  0  0  0
 19 26  1  0  0  0  0
 27 21  1  1  0  0  0
 22 28  1  0  0  0  0
 24 29  1  1  0  0  0
 24 30  1  0  0  0  0
 27 31  1  0  0  0  0
 27 32  1  0  0  0  0
 28 33  1  0  0  0  0
 29 34  1  0  0  0  0
 30 35  1  0  0  0  0
 31 36  2  0  0  0  0
 31 37  1  0  0  0  0
 32 38  1  0  0  0  0
 33 39  1  0  0  0  0
 34 40  2  0  0  0  0
 41 34  1  1  0  0  0
 35 42  1  0  0  0  0
 35 43  1  0  0  0  0
 44 37  1  6  0  0  0
 38 45  1  0  0  0  0
 38 46  1  0  0  0  0
 39 47  2  0  0  0  0
 39 48  1  0  0  0  0
 41 49  1  0  0  0  0
 41 50  1  0  0  0  0
 44 51  1  0  0  0  0
 44 52  1  0  0  0  0
 49 53  1  0  0  0  0
 49 54  1  0  0  0  0
 50 55  1  0  0  0  0
 51 56  2  0  0  0  0
 51 57  1  0  0  0  0
 52 58  1  0  0  0  0
 53 59  2  0  0  0  0
 53 60  1  0  0  0  0
 61 57  1  6  0  0  0
 58 62  1  0  0  0  0
 58 63  1  0  0  0  0
 60 64  1  6  0  0  0
 60 65  1  0  0  0  0
 61 66  1  0  0  0  0
 61 67  1  0  0  0  0
 65 68  1  0  0  0  0
 66 69  2  0  0  0  0
 66 70  1  0  0  0  0
 67 71  1  0  0  0  0
 68 72  1  0  0  0  0
 68 73  2  0  0  0  0
 74 70  1  6  0  0  0
 71 75  1  0  0  0  0
 71 76  2  0  0  0  0
 72 77  1  0  0  0  0
 73 78  1  0  0  0  0
 74 79  1  0  0  0  0
 74 80  1  0  0  0  0
 75 81  1  0  0  0  0
 76 82  1  0  0  0  0
 79 83  2  0  0  0  0
 79 84  1  0  0  0  0
 80 85  1  0  0  0  0
 84 86  1  0  0  0  0
 84 87  1  0  0  0  0
 85 88  1  0  0  0  0
 85 89  2  0  0  0  0
 86 90  1  1  0  0  0
 86 91  1  0  0  0  0
 87 92  1  0  0  0  0
 88 93  1  0  0  0  0
 89 94  1  0  0  0  0
 90 95  2  0  0  0  0
 90 96  1  0  0  0  0
 97 96  1  6  0  0  0
 97 98  1  0  0  0  0
 97 99  1  0  0  0  0
 98100  2  0  0  0  0
 98101  1  0  0  0  0
 99102  1  0  0  0  0
 54 55  1  0  0  0  0
 77 78  2  0  0  0  0
 81 82  2  0  0  0  0
 91 92  1  0  0  0  0
 93 94  2  0  0  0  0
M  END
>  <MolRegNo>
2315351

>  <m>
=

>  <Value>
1541

>  <Unit>
nM

>  <Type>
Ki

>  <pValue>
5.81

>  <Ligand Efficiency>
0

>  <Binding Efficiency>
4.01

>  <Surface Efficiency>
0

>  <Assay Index>
1194216

>  <Assay Category>


>  <Assay Organism>
Homo sapiens

>  <Target ID>
19

>  <Target Name>
Estrogen receptor alpha

>  <Target Organism>
Homo sapiens

>  <Target Description>
Target is a single protein chain

>  <Sequence Accession>
P03372

>  <Reference>
Bioorg Med Chem Lett 28 (17), 2827-2836 (2018)

>  <Pubmed ID>
30025900

>  <DOI>
10.1016/j.bmcl.2018.05.062

$$$$
2315018
Actelion Java MolfileCreator 1.0

 76 76  0  0  0  0  0  0  0  0999 V2000
    0.0000   -0.0000   -0.0000 S   0  0  0  0  0  0  0  0  0  0  0  0
    1.2721   -0.7104   -0.0000 C   0  0  0  0  0  0  0  0  0  0  0  0
   -1.7512    1.7843   -0.0000 C   0  0  0  0  0  0  0  0  0  0  0  0
    2.5277    0.0330   -0.0000 C   0  0  0  0  0  0  0  0  0  0  0  0
   -3.8659    2.2634   -0.0000 C   0  0  0  0  0  0  0  0  0  0  0  0
    2.5112    1.5364   -0.0000 N   0  0  0  0  0  0  0  0  0  0  0  0
    3.7998   -0.6774   -0.0000 C   0  0  0  0  0  0  0  0  0  0  0  0
   -3.8824    3.7668   -0.0000 C   0  0  0  0  0  0  0  0  0  0  0  0
    1.2225    2.2964   -0.0000 C   0  0  0  0  0  0  0  0  0  0  0  0
    5.0554    0.0661   -0.0000 O   0  0  0  0  0  0  0  0  0  0  0  0
    3.7833   -2.1477   -0.0000 N   0  0  0  0  0  0  0  0  0  0  0  0
   -5.1710    4.5102   -0.0000 N   0  0  0  0  0  0  0  0  0  0  0  0
   -2.6103    4.5102   -0.0000 C   0  0  0  0  0  0  0  0  0  0  0  0
   -0.0826    1.5695   -0.0000 O   0  0  0  0  0  0  0  0  0  0  0  0
    1.2060    3.7998   -0.0000 C   0  0  0  0  0  0  0  0  0  0  0  0
    5.0389   -2.8581   -0.0000 C   0  0  0  0  0  0  0  0  0  0  0  0
   -6.4762    3.7998   -0.0000 C   0  0  0  0  0  0  0  0  0  0  0  0
   -1.3382    3.7998   -0.0000 O   0  0  0  0  0  0  0  0  0  0  0  0
   -2.6268    6.0136   -0.0000 N   0  0  0  0  0  0  0  0  0  0  0  0
   -0.0991    4.5432   -0.0000 N   0  0  0  0  0  0  0  0  0  0  0  0
    2.4616    4.5432   -0.0000 C   0  0  0  0  0  0  0  0  0  0  0  0
    6.2945   -2.1147   -0.0000 C   0  0  0  0  0  0  0  0  0  0  0  0
    5.0223   -4.3285   -0.0000 C   0  0  0  0  0  0  0  0  0  0  0  0
   -7.7648    4.5432   -0.0000 O   0  0  0  0  0  0  0  0  0  0  0  0
   -6.4927    2.3294   -0.0000 C   0  0  0  0  0  0  0  0  0  0  0  0
   -1.3547    6.7736   -0.0000 C   0  0  0  0  0  0  0  0  0  0  0  0
   -0.1156    6.0466   -0.0000 C   0  0  0  0  0  0  0  0  0  0  0  0
    3.7337    3.8328   -0.0000 C   0  0  0  0  0  0  0  0  0  0  0  0
    7.5666   -2.8251   -0.0000 O   0  0  0  0  0  0  0  0  0  0  0  0
    6.2779   -0.6113   -0.0000 N   0  0  0  0  0  0  0  0  0  0  0  0
    3.7337   -5.0554   -0.0000 C   0  0  0  0  0  0  0  0  0  0  0  0
   -5.2206    1.6025   -0.0000 N   0  0  0  0  0  0  0  0  0  0  0  0
   -7.7813    1.6025   -0.0000 C   0  0  0  0  0  0  0  0  0  0  0  0
   -1.3712    8.2770   -0.0000 C   0  0  0  0  0  0  0  0  0  0  0  0
    1.1565    6.8066   -0.0000 O   0  0  0  0  0  0  0  0  0  0  0  0
    4.9893    4.5763   -0.0000 C   0  0  0  0  0  0  0  0  0  0  0  0
    3.7172    2.3625   -0.0000 C   0  0  0  0  0  0  0  0  0  0  0  0
    7.5500    0.1322   -0.0000 C   0  0  0  0  0  0  0  0  0  0  0  0
    2.4286   -4.2954   -0.0000 C   0  0  0  0  0  0  0  0  0  0  0  0
   -7.7979    0.1322   -0.0000 C   0  0  0  0  0  0  0  0  0  0  0  0
   -2.6764    9.0204   -0.0000 C   0  0  0  0  0  0  0  0  0  0  0  0
   -0.1156    9.0204   -0.0000 C   0  0  0  0  0  0  0  0  0  0  0  0
    8.8222   -0.5782   -0.0000 C   0  0  0  0  0  0  0  0  0  0  0  0
    7.5335    1.6356   -0.0000 C   0  0  0  0  0  0  0  0  0  0  0  0
    1.1399   -5.0223   -0.0000 N   0  0  0  0  0  0  0  0  0  0  0  0
   -9.1030   -0.5948   -0.0000 C   0  0  0  0  0  0  0  0  0  0  0  0
   -3.9815    8.3100   -0.0000 C   0  0  0  0  0  0  0  0  0  0  0  0
    8.8056   -2.0486   -0.0000 O   0  0  0  0  0  0  0  0  0  0  0  0
   10.0943    0.1652   -0.0000 N   0  0  0  0  0  0  0  0  0  0  0  0
    8.8056    2.3955   -0.0000 C   0  0  0  0  0  0  0  0  0  0  0  0
    1.1234   -6.4927   -0.0000 C   0  0  0  0  0  0  0  0  0  0  0  0
   -9.1195   -2.0816   -0.0000 N   0  0  0  0  0  0  0  0  0  0  0  0
   11.3498   -0.5452   -0.0000 C   0  0  0  0  0  0  0  0  0  0  0  0
   10.0777    1.6686   -0.0000 C   0  0  0  0  0  0  0  0  0  0  0  0
    8.7891    3.8989   -0.0000 C   0  0  0  0  0  0  0  0  0  0  0  0
    2.3790   -7.2031   -0.0000 N   0  0  0  0  0  0  0  0  0  0  0  0
   -0.1817   -7.2031   -0.0000 N   0  0  0  0  0  0  0  0  0  0  0  0
  -10.4247   -2.8086   -0.0000 C   0  0  0  0  0  0  0  0  0  0  0  0
   12.6220    0.1983   -0.0000 C   0  0  0  0  0  0  0  0  0  0  0  0
   11.3333   -2.0155   -0.0000 C   0  0  0  0  0  0  0  0  0  0  0  0
  -10.4412   -4.2954   -0.0000 N   0  0  0  0  0  0  0  0  0  0  0  0
  -11.7298   -2.0486   -0.0000 N   0  0  0  0  0  0  0  0  0  0  0  0
   12.6054    1.7017   -0.0000 O   0  0  0  0  0  0  0  0  0  0  0  0
   13.8941   -0.5121   -0.0000 N   0  0  0  0  0  0  0  0  0  0  0  0
   12.6054   -2.7259   -0.0000 C   0  0  0  0  0  0  0  0  0  0  0  0
   15.1497    0.2313   -0.0000 C   0  0  0  0  0  0  0  0  0  0  0  0
   12.5889   -4.1963   -0.0000 C   0  0  0  0  0  0  0  0  0  0  0  0
   13.8775   -1.9825   -0.0000 C   0  0  0  0  0  0  0  0  0  0  0  0
   16.4218   -0.4791   -0.0000 C   0  0  0  0  0  0  0  0  0  0  0  0
   15.1331    1.7347   -0.0000 C   0  0  0  0  0  0  0  0  0  0  0  0
   16.4052   -1.9495   -0.0000 O   0  0  0  0  0  0  0  0  0  0  0  0
   17.6773    0.2643   -0.0000 N   0  0  0  0  0  0  0  0  0  0  0  0
   16.4052    2.4947   -0.0000 C   0  0  0  0  0  0  0  0  0  0  0  0
   16.3887    3.9981   -0.0000 C   0  0  0  0  0  0  0  0  0  0  0  0
   17.6443    4.7415   -0.0000 O   0  0  0  0  0  0  0  0  0  0  0  0
   15.0836    4.7415   -0.0000 N   0  0  0  0  0  0  0  0  0  0  0  0
  1  2  1  0  0  0  0
  1  3  1  0  0  0  0
  2  4  1  0  0  0  0
  3  5  1  0  0  0  0
  4  6  1  0  0  0  0
  4  7  1  6  0  0  0
  5  8  1  0  0  0  0
  6  9  1  0  0  0  0
  7 10  2  0  0  0  0
  7 11  1  0  0  0  0
  8 12  1  1  0  0  0
  8 13  1  0  0  0  0
  9 14  2  0  0  0  0
  9 15  1  0  0  0  0
 16 11  1  6  0  0  0
 12 17  1  0  0  0  0
 13 18  2  0  0  0  0
 13 19  1  0  0  0  0
 15 20  1  0  0  0  0
 15 21  1  1  0  0  0
 16 22  1  0  0  0  0
 16 23  1  0  0  0  0
 17 24  2  0  0  0  0
 17 25  1  0  0  0  0
 26 19  1  1  0  0  0
 20 27  1  0  0  0  0
 21 28  1  0  0  0  0
 22 29  2  0  0  0  0
 22 30  1  0  0  0  0
 23 31  1  0  0  0  0
 25 32  1  1  0  0  0
 25 33  1  0  0  0  0
 26 34  1  0  0  0  0
 27 35  2  0  0  0  0
 28 36  1  0  0  0  0
 28 37  1  0  0  0  0
 38 30  1  1  0  0  0
 31 39  1  0  0  0  0
 33 40  1  0  0  0  0
 34 41  1  0  0  0  0
 34 42  1  6  0  0  0
 38 43  1  0  0  0  0
 38 44  1  0  0  0  0
 39 45  1  0  0  0  0
 40 46  1  0  0  0  0
 41 47  1  0  0  0  0
 43 48  2  0  0  0  0
 43 49  1  0  0  0  0
 44 50  1  0  0  0  0
 45 51  1  0  0  0  0
 46 52  1  0  0  0  0
 53 49  1  6  0  0  0
 50 54  1  0  0  0  0
 50 55  1  0  0  0  0
 51 56  2  0  0  0  0
 51 57  1  0  0  0  0
 52 58  1  0  0  0  0
 53 59  1  0  0  0  0
 53 60  1  0  0  0  0
 58 61  2  0  0  0  0
 58 62  1  0  0  0  0
 59 63  2  0  0  0  0
 59 64  1  0  0  0  0
 60 65  1  0  0  0  0
 66 64  1  1  0  0  0
 65 67  1  0  0  0  0
 65 68  1  0  0  0  0
 66 69  1  0  0  0  0
 66 70  1  0  0  0  0
 69 71  2  0  0  0  0
 69 72  1  0  0  0  0
 70 73  1  0  0  0  0
 73 74  1  0  0  0  0
 74 75  2  0  0  0  0
 74 76  1  0  0  0  0
 26 27  1  0  0  0  0
M  END
>  <MolRegNo>
2315018

>  <m>
=

>  <Value>
6.9

>  <Unit>
nM

>  <Type>
Ki

>  <pValue>
8.16

>  <Ligand Efficiency>
0

>  <Binding Efficiency>
7.44

>  <Surface Efficiency>
0

>  <Assay Index>
1194218

>  <Assay Category>


>  <Assay Organism>
Homo sapiens

>  <Target ID>
19

>  <Target Name>
Estrogen receptor alpha

>  <Target Organism>
Homo sapiens

>  <Target Description>
Target is a single protein chain

>  <Sequence Accession>
P03372

>  <Reference>
Bioorg Med Chem Lett 28 (17), 2827-2836 (2018)

>  <Pubmed ID>
30025900

>  <DOI>
10.1016/j.bmcl.2018.05.062

$$$$
2397090
Actelion Java MolfileCreator 1.0

 74 74  0  0  0  0  0  0  0  0999 V2000
    0.0000   -0.0000   -0.0000 S   0  0  0  0  0  0  0  0  0  0  0  0
    3.9856   -3.3213   -0.0000 S   0  0  0  0  0  0  0  0  0  0  0  0
   -1.2969    0.7592   -0.0000 C   0  0  0  0  0  0  0  0  0  0  0  0
    4.9978   -4.3335   -0.0000 C   0  0  0  0  0  0  0  0  0  0  0  0
   -2.5938    0.0633   -0.0000 C   0  0  0  0  0  0  0  0  0  0  0  0
    4.9661   -5.7569   -0.0000 C   0  0  0  0  0  0  0  0  0  0  0  0
   -3.8907    0.8224   -0.0000 N   0  0  0  0  0  0  0  0  0  0  0  0
   -2.6254   -1.3602   -0.0000 C   0  0  0  0  0  0  0  0  0  0  0  0
    3.6692   -6.4528   -0.0000 N   0  0  0  0  0  0  0  0  0  0  0  0
    6.1998   -6.4528   -0.0000 C   0  0  0  0  0  0  0  0  0  0  0  0
   -3.9223    2.3091   -0.0000 C   0  0  0  0  0  0  0  0  0  0  0  0
   -3.9223   -2.0560   -0.0000 O   0  0  0  0  0  0  0  0  0  0  0  0
   -1.3918   -2.0560   -0.0000 N   0  0  0  0  0  0  0  0  0  0  0  0
    2.3724   -5.6937   -0.0000 C   0  0  0  0  0  0  0  0  0  0  0  0
    6.1681   -7.8762   -0.0000 O   0  0  0  0  0  0  0  0  0  0  0  0
    7.4334   -5.6937   -0.0000 N   0  0  0  0  0  0  0  0  0  0  0  0
   -2.6887    3.0683   -0.0000 O   0  0  0  0  0  0  0  0  0  0  0  0
   -5.2192    3.0683   -0.0000 C   0  0  0  0  0  0  0  0  0  0  0  0
   -1.4234   -3.4795   -0.0000 C   0  0  0  0  0  0  0  0  0  0  0  0
    2.3407   -4.2070   -0.0000 O   0  0  0  0  0  0  0  0  0  0  0  0
    1.0755   -6.3896   -0.0000 C   0  0  0  0  0  0  0  0  0  0  0  0
    8.6670   -6.3896   -0.0000 C   0  0  0  0  0  0  0  0  0  0  0  0
   -5.2508    4.5549   -0.0000 N   0  0  0  0  0  0  0  0  0  0  0  0
   -6.5161    2.3724   -0.0000 C   0  0  0  0  0  0  0  0  0  0  0  0
   -0.1898   -4.1754   -0.0000 C   0  0  0  0  0  0  0  0  0  0  0  0
   -2.7203   -4.1754   -0.0000 C   0  0  0  0  0  0  0  0  0  0  0  0
   -0.2214   -5.6304   -0.0000 N   0  0  0  0  0  0  0  0  0  0  0  0
    1.0438   -7.8130   -0.0000 C   0  0  0  0  0  0  0  0  0  0  0  0
    9.9006   -5.6304   -0.0000 C   0  0  0  0  0  0  0  0  0  0  0  0
    8.6354   -7.8130   -0.0000 C   0  0  0  0  0  0  0  0  0  0  0  0
   -6.5477    0.9489   -0.0000 C   0  0  0  0  0  0  0  0  0  0  0  0
    1.0438   -3.4162   -0.0000 O   0  0  0  0  0  0  0  0  0  0  0  0
   -4.0172   -3.4162   -0.0000 C   0  0  0  0  0  0  0  0  0  0  0  0
   -2.7519   -5.5988   -0.0000 C   0  0  0  0  0  0  0  0  0  0  0  0
    2.2775   -8.5089   -0.0000 C   0  0  0  0  0  0  0  0  0  0  0  0
    9.8690   -4.1437   -0.0000 O   0  0  0  0  0  0  0  0  0  0  0  0
   11.1343   -6.3263   -0.0000 N   0  0  0  0  0  0  0  0  0  0  0  0
    9.8690   -8.5089   -0.0000 C   0  0  0  0  0  0  0  0  0  0  0  0
   -7.8446    0.2531   -0.0000 C   0  0  0  0  0  0  0  0  0  0  0  0
   -5.3141   -4.1121   -0.0000 C   0  0  0  0  0  0  0  0  0  0  0  0
    2.2458   -9.9323   -0.0000 C   0  0  0  0  0  0  0  0  0  0  0  0
    3.5111   -7.7497   -0.0000 C   0  0  0  0  0  0  0  0  0  0  0  0
   12.3679   -5.5671   -0.0000 C   0  0  0  0  0  0  0  0  0  0  0  0
    9.8374   -9.9323   -0.0000 C   0  0  0  0  0  0  0  0  0  0  0  0
   -7.8762   -1.1704   -0.0000 C   0  0  0  0  0  0  0  0  0  0  0  0
   13.6015   -6.2630   -0.0000 C   0  0  0  0  0  0  0  0  0  0  0  0
   12.3363   -4.0805   -0.0000 C   0  0  0  0  0  0  0  0  0  0  0  0
   11.0710  -10.6282   -0.0000 N   0  0  0  0  0  0  0  0  0  0  0  0
   -9.1731   -1.8663   -0.0000 N   0  0  0  0  0  0  0  0  0  0  0  0
   13.5699   -7.6864   -0.0000 O   0  0  0  0  0  0  0  0  0  0  0  0
   14.8351   -5.5039   -0.0000 N   0  0  0  0  0  0  0  0  0  0  0  0
   13.5699   -3.3213   -0.0000 C   0  0  0  0  0  0  0  0  0  0  0  0
   11.0394  -12.0516   -0.0000 C   0  0  0  0  0  0  0  0  0  0  0  0
   16.0688   -6.1998   -0.0000 C   0  0  0  0  0  0  0  0  0  0  0  0
   13.5383   -1.8346   -0.0000 C   0  0  0  0  0  0  0  0  0  0  0  0
   14.8035   -4.0172   -0.0000 C   0  0  0  0  0  0  0  0  0  0  0  0
   12.2730  -12.7475   -0.0000 N   0  0  0  0  0  0  0  0  0  0  0  0
    9.7425  -12.7475   -0.0000 N   0  0  0  0  0  0  0  0  0  0  0  0
   17.3024   -5.4406   -0.0000 C   0  0  0  0  0  0  0  0  0  0  0  0
   16.0371   -7.6232   -0.0000 C   0  0  0  0  0  0  0  0  0  0  0  0
   17.2708   -3.9539   -0.0000 O   0  0  0  0  0  0  0  0  0  0  0  0
   18.5360   -6.1365   -0.0000 N   0  0  0  0  0  0  0  0  0  0  0  0
   17.2708   -8.3191   -0.0000 C   0  0  0  0  0  0  0  0  0  0  0  0
   19.7697   -5.3773   -0.0000 C   0  0  0  0  0  0  0  0  0  0  0  0
   17.2391   -9.7425   -0.0000 C   0  0  0  0  0  0  0  0  0  0  0  0
   18.5044   -7.5599   -0.0000 C   0  0  0  0  0  0  0  0  0  0  0  0
   21.0033   -6.0732   -0.0000 C   0  0  0  0  0  0  0  0  0  0  0  0
   19.7380   -3.8907   -0.0000 C   0  0  0  0  0  0  0  0  0  0  0  0
   20.9717   -7.4967   -0.0000 O   0  0  0  0  0  0  0  0  0  0  0  0
   22.2369   -5.3141   -0.0000 O   0  0  0  0  0  0  0  0  0  0  0  0
   20.9717   -3.1315   -0.0000 C   0  0  0  0  0  0  0  0  0  0  0  0
   20.9400   -1.6448   -0.0000 C   0  0  0  0  0  0  0  0  0  0  0  0
   22.1736   -0.8857   -0.0000 O   0  0  0  0  0  0  0  0  0  0  0  0
   19.6431   -0.8857   -0.0000 N   0  0  0  0  0  0  0  0  0  0  0  0
  1  2  1  0  0  0  0
  1  3  1  0  0  0  0
  2  4  1  0  0  0  0
  3  5  1  0  0  0  0
  4  6  1  0  0  0  0
  5  7  1  6  0  0  0
  5  8  1  0  0  0  0
  6  9  1  0  0  0  0
  6 10  1  1  0  0  0
  7 11  1  0  0  0  0
  8 12  2  0  0  0  0
  8 13  1  0  0  0  0
  9 14  1  0  0  0  0
 10 15  2  0  0  0  0
 10 16  1  0  0  0  0
 11 17  2  0  0  0  0
 11 18  1  0  0  0  0
 19 13  1  6  0  0  0
 14 20  2  0  0  0  0
 14 21  1  0  0  0  0
 22 16  1  6  0  0  0
 18 23  1  6  0  0  0
 18 24  1  0  0  0  0
 19 25  1  0  0  0  0
 19 26  1  0  0  0  0
 21 27  1  0  0  0  0
 21 28  1  6  0  0  0
 22 29  1  0  0  0  0
 22 30  1  0  0  0  0
 24 31  1  0  0  0  0
 25 32  2  0  0  0  0
 26 33  1  0  0  0  0
 26 34  1  1  0  0  0
 28 35  1  0  0  0  0
 29 36  2  0  0  0  0
 29 37  1  0  0  0  0
 30 38  1  0  0  0  0
 31 39  1  0  0  0  0
 33 40  1  0  0  0  0
 35 41  1  0  0  0  0
 35 42  1  0  0  0  0
 43 37  1  1  0  0  0
 38 44  1  0  0  0  0
 39 45  1  0  0  0  0
 43 46  1  0  0  0  0
 43 47  1  0  0  0  0
 44 48  1  0  0  0  0
 45 49  1  0  0  0  0
 46 50  2  0  0  0  0
 46 51  1  0  0  0  0
 47 52  1  0  0  0  0
 48 53  1  0  0  0  0
 54 51  1  6  0  0  0
 52 55  1  0  0  0  0
 52 56  1  0  0  0  0
 53 57  2  0  0  0  0
 53 58  1  0  0  0  0
 54 59  1  0  0  0  0
 54 60  1  0  0  0  0
 59 61  2  0  0  0  0
 59 62  1  0  0  0  0
 60 63  1  0  0  0  0
 64 62  1  1  0  0  0
 63 65  1  0  0  0  0
 63 66  1  0  0  0  0
 64 67  1  0  0  0  0
 64 68  1  0  0  0  0
 67 69  2  0  0  0  0
 67 70  1  0  0  0  0
 68 71  1  0  0  0  0
 71 72  1  0  0  0  0
 72 73  2  0  0  0  0
 72 74  1  0  0  0  0
 25 27  1  0  0  0  0
M  END
>  <MolRegNo>
2397090

>  <m>
=

>  <Value>
25

>  <Unit>
nM

>  <Type>
Ki

>  <pValue>
7.6

>  <Ligand Efficiency>
0

>  <Binding Efficiency>
6.99

>  <Surface Efficiency>
0

>  <Assay Index>
1350462

>  <Assay Category>


>  <Assay Organism>
Homo sapiens

>  <Target ID>
19

>  <Target Name>
Estrogen receptor alpha

>  <Target Organism>
Homo sapiens

>  <Target Description>
Target is a single protein chain

>  <Sequence Accession>
P03372

>  <Reference>
Bioorg Med Chem Lett 26 (17), 4157-4164 (2016)

>  <Pubmed ID>
27503683

>  <DOI>
10.1016/j.bmcl.2016.07.067

$$$$
2547351
Actelion Java MolfileCreator 1.0

 43 47  0  0  0  0  0  0  0  0999 V2000
    0.0000   -0.0000   -0.0000 S   0  0  0  0  0  0  0  0  0  0  0  0
   -0.7674    1.3105   -0.0000 O   0  0  0  0  0  0  0  0  0  0  0  0
    0.7438    1.3105   -0.0000 O   0  0  0  0  0  0  0  0  0  0  0  0
    1.2869   -0.7438   -0.0000 N   0  0  0  0  0  0  0  0  0  0  0  0
   -1.2987   -0.7438   -0.0000 C   0  0  0  0  0  0  0  0  0  0  0  0
    2.5739    0.0118   -0.0000 C   0  0  0  0  0  0  0  0  0  0  0  0
    1.2751   -2.2315   -0.0000 C   0  0  0  0  0  0  0  0  0  0  0  0
   -2.6093    0.0236   -0.0000 C   0  0  0  0  0  0  0  0  0  0  0  0
   -1.3105   -2.2315   -0.0000 C   0  0  0  0  0  0  0  0  0  0  0  0
    3.8490   -0.7438   -0.0000 C   0  0  0  0  0  0  0  0  0  0  0  0
    2.5620    1.5113   -0.0000 C   0  0  0  0  0  0  0  0  0  0  0  0
   -2.2433   -1.4050   -0.0000 O   0  0  0  0  0  0  0  0  0  0  0  0
   -3.9198   -0.7202   -0.0000 C   0  0  0  0  0  0  0  0  0  0  0  0
   -2.6329   -2.8572   -0.0000 C   0  0  0  0  0  0  0  0  0  0  0  0
    5.1359    0.0118   -0.0000 C   0  0  0  0  0  0  0  0  0  0  0  0
    3.8490    2.2669   -0.0000 C   0  0  0  0  0  0  0  0  0  0  0  0
   -5.2304    0.0354   -0.0000 C   0  0  0  0  0  0  0  0  0  0  0  0
   -3.9316   -2.2078   -0.0000 C   0  0  0  0  0  0  0  0  0  0  0  0
    5.1241    1.5231   -0.0000 C   0  0  0  0  0  0  0  0  0  0  0  0
   -5.2422    1.5467   -0.0000 C   0  0  0  0  0  0  0  0  0  0  0  0
   -6.5291   -0.7084   -0.0000 C   0  0  0  0  0  0  0  0  0  0  0  0
   -5.2422   -2.9399   -0.0000 C   0  0  0  0  0  0  0  0  0  0  0  0
   -6.5527    2.3023   -0.0000 C   0  0  0  0  0  0  0  0  0  0  0  0
   -7.8396    0.0472   -0.0000 C   0  0  0  0  0  0  0  0  0  0  0  0
   -6.5527   -2.1842   -0.0000 C   0  0  0  0  0  0  0  0  0  0  0  0
   -5.2540   -4.4157   -0.0000 C   0  0  0  0  0  0  0  0  0  0  0  0
   -7.8632    1.5703   -0.0000 C   0  0  0  0  0  0  0  0  0  0  0  0
   -7.8632   -2.9162   -0.0000 C   0  0  0  0  0  0  0  0  0  0  0  0
   -6.5527   -5.1595   -0.0000 C   0  0  0  0  0  0  0  0  0  0  0  0
   -9.1738    2.3259   -0.0000 N   0  0  0  0  0  0  0  0  0  0  0  0
   -7.8750   -4.4039   -0.0000 C   0  0  0  0  0  0  0  0  0  0  0  0
  -10.4843    1.5821   -0.0000 C   0  0  0  0  0  0  0  0  0  0  0  0
   -9.1856   -5.1477   -0.0000 O   0  0  0  0  0  0  0  0  0  0  0  0
  -10.4843    0.0945   -0.0000 O   0  0  0  0  0  0  0  0  0  0  0  0
  -11.7949    2.3377   -0.0000 C   0  0  0  0  0  0  0  0  0  0  0  0
  -13.1054    1.5939   -0.0000 C   0  0  0  0  0  0  0  0  0  0  0  0
  -14.4159    2.3495   -0.0000 C   0  0  0  0  0  0  0  0  0  0  0  0
  -15.7265    1.6057   -0.0000 C   0  0  0  0  0  0  0  0  0  0  0  0
  -17.0370    2.3613   -0.0000 C   0  0  0  0  0  0  0  0  0  0  0  0
  -18.3476    1.6175   -0.0000 C   0  0  0  0  0  0  0  0  0  0  0  0
  -19.6581    2.3731   -0.0000 C   0  0  0  0  0  0  0  0  0  0  0  0
  -19.6817    3.8844   -0.0000 O   0  0  0  0  0  0  0  0  0  0  0  0
  -20.9568    1.6293   -0.0000 O   0  0  0  0  0  0  0  0  0  0  0  0
  1  2  2  0  0  0  0
  1  3  2  0  0  0  0
  1  4  1  0  0  0  0
  1  5  1  0  0  0  0
  4  6  1  0  0  0  0
  4  7  1  0  0  0  0
  5  8  1  0  0  0  0
  5  9  1  0  0  0  0
  6 10  2  0  0  0  0
  6 11  1  0  0  0  0
  8 12  1  0  0  0  0
  8 13  1  0  0  0  0
  9 14  1  0  0  0  0
 10 15  1  0  0  0  0
 11 16  2  0  0  0  0
 13 17  1  0  0  0  0
 13 18  2  0  0  0  0
 15 19  2  0  0  0  0
 17 20  2  0  0  0  0
 17 21  1  0  0  0  0
 18 22  1  0  0  0  0
 20 23  1  0  0  0  0
 21 24  2  0  0  0  0
 22 25  2  0  0  0  0
 22 26  1  0  0  0  0
 23 27  2  0  0  0  0
 25 28  1  0  0  0  0
 26 29  2  0  0  0  0
 27 30  1  0  0  0  0
 28 31  2  0  0  0  0
 30 32  1  0  0  0  0
 31 33  1  0  0  0  0
 32 34  2  0  0  0  0
 32 35  1  0  0  0  0
 35 36  1  0  0  0  0
 36 37  1  0  0  0  0
 37 38  1  0  0  0  0
 38 39  1  0  0  0  0
 39 40  1  0  0  0  0
 40 41  1  0  0  0  0
 41 42  2  0  0  0  0
 41 43  1  0  0  0  0
 12 14  1  0  0  0  0
 14 18  1  0  0  0  0
 16 19  1  0  0  0  0
 24 27  1  0  0  0  0
 29 31  1  0  0  0  0
M  END
>  <MolRegNo>
2547351

>  <m>
=

>  <Value>
23.71

>  <Unit>
nM

>  <Type>
Ki

>  <pValue>
7.62

>  <Ligand Efficiency>
0.24

>  <Binding Efficiency>
12.61

>  <Surface Efficiency>
5.72

>  <Assay Index>
1467863

>  <Assay Category>


>  <Assay Organism>
Homo sapiens

>  <Target ID>
19

>  <Target Name>
Estrogen receptor alpha

>  <Target Organism>
Homo sapiens

>  <Target Description>
Target is a single protein chain

>  <Sequence Accession>
P03372

>  <Reference>


>  <Pubmed ID>
33965842

>  <DOI>
10.1016/j.bmc.2021.116185

$$$$
2547342
Actelion Java MolfileCreator 1.0

 44 48  0  0  0  0  0  0  0  0999 V2000
    0.0000   -0.0000   -0.0000 S   0  0  0  0  0  0  0  0  0  0  0  0
   -0.7676    1.3109   -0.0000 O   0  0  0  0  0  0  0  0  0  0  0  0
    0.7440    1.3109   -0.0000 O   0  0  0  0  0  0  0  0  0  0  0  0
    1.2872   -0.7440   -0.0000 N   0  0  0  0  0  0  0  0  0  0  0  0
   -1.2991   -0.7440   -0.0000 C   0  0  0  0  0  0  0  0  0  0  0  0
    2.5745    0.0118   -0.0000 C   0  0  0  0  0  0  0  0  0  0  0  0
    1.2754   -2.2320   -0.0000 C   0  0  0  0  0  0  0  0  0  0  0  0
   -2.6099    0.0236   -0.0000 C   0  0  0  0  0  0  0  0  0  0  0  0
   -1.3109   -2.2320   -0.0000 C   0  0  0  0  0  0  0  0  0  0  0  0
    3.8499   -0.7440   -0.0000 C   0  0  0  0  0  0  0  0  0  0  0  0
    2.5627    1.5116   -0.0000 C   0  0  0  0  0  0  0  0  0  0  0  0
   -2.2438   -1.4053   -0.0000 O   0  0  0  0  0  0  0  0  0  0  0  0
   -3.9208   -0.7204   -0.0000 C   0  0  0  0  0  0  0  0  0  0  0  0
   -2.6335   -2.8579   -0.0000 C   0  0  0  0  0  0  0  0  0  0  0  0
    5.1372    0.0118   -0.0000 C   0  0  0  0  0  0  0  0  0  0  0  0
    3.8499    2.2674   -0.0000 C   0  0  0  0  0  0  0  0  0  0  0  0
   -5.2316    0.0354   -0.0000 C   0  0  0  0  0  0  0  0  0  0  0  0
   -3.9326   -2.2084   -0.0000 C   0  0  0  0  0  0  0  0  0  0  0  0
    5.1254    1.5234   -0.0000 C   0  0  0  0  0  0  0  0  0  0  0  0
   -5.2435    1.5471   -0.0000 C   0  0  0  0  0  0  0  0  0  0  0  0
   -6.5307   -0.7086   -0.0000 C   0  0  0  0  0  0  0  0  0  0  0  0
   -5.2435   -2.9406   -0.0000 C   0  0  0  0  0  0  0  0  0  0  0  0
    6.4008    2.2793   -0.0000 C   0  0  0  0  0  0  0  0  0  0  0  0
   -6.5543    2.3029   -0.0000 C   0  0  0  0  0  0  0  0  0  0  0  0
   -7.8416    0.0472   -0.0000 C   0  0  0  0  0  0  0  0  0  0  0  0
   -6.5543   -2.1848   -0.0000 C   0  0  0  0  0  0  0  0  0  0  0  0
   -5.2553   -4.4168   -0.0000 C   0  0  0  0  0  0  0  0  0  0  0  0
   -7.8652    1.5707   -0.0000 C   0  0  0  0  0  0  0  0  0  0  0  0
   -7.8652   -2.9170   -0.0000 C   0  0  0  0  0  0  0  0  0  0  0  0
   -6.5543   -5.1608   -0.0000 C   0  0  0  0  0  0  0  0  0  0  0  0
   -9.1760    2.3265   -0.0000 N   0  0  0  0  0  0  0  0  0  0  0  0
   -7.8770   -4.4050   -0.0000 C   0  0  0  0  0  0  0  0  0  0  0  0
  -10.4869    1.5825   -0.0000 C   0  0  0  0  0  0  0  0  0  0  0  0
   -9.1879   -5.1490   -0.0000 O   0  0  0  0  0  0  0  0  0  0  0  0
  -10.4869    0.0945   -0.0000 O   0  0  0  0  0  0  0  0  0  0  0  0
  -11.7978    2.3383   -0.0000 C   0  0  0  0  0  0  0  0  0  0  0  0
  -13.1086    1.5943   -0.0000 C   0  0  0  0  0  0  0  0  0  0  0  0
  -14.4195    2.3501   -0.0000 C   0  0  0  0  0  0  0  0  0  0  0  0
  -15.7304    1.6061   -0.0000 C   0  0  0  0  0  0  0  0  0  0  0  0
  -17.0412    2.3619   -0.0000 C   0  0  0  0  0  0  0  0  0  0  0  0
  -18.3521    1.6179   -0.0000 C   0  0  0  0  0  0  0  0  0  0  0  0
  -19.6630    2.3737   -0.0000 C   0  0  0  0  0  0  0  0  0  0  0  0
  -19.6866    3.8854   -0.0000 O   0  0  0  0  0  0  0  0  0  0  0  0
  -20.9620    1.6297   -0.0000 O   0  0  0  0  0  0  0  0  0  0  0  0
  1  2  2  0  0  0  0
  1  3  2  0  0  0  0
  1  4  1  0  0  0  0
  1  5  1  0  0  0  0
  4  6  1  0  0  0  0
  4  7  1  0  0  0  0
  5  8  1  0  0  0  0
  5  9  1  0  0  0  0
  6 10  2  0  0  0  0
  6 11  1  0  0  0  0
  8 12  1  0  0  0  0
  8 13  1  0  0  0  0
  9 14  1  0  0  0  0
 10 15  1  0  0  0  0
 11 16  2  0  0  0  0
 13 17  1  0  0  0  0
 13 18  2  0  0  0  0
 15 19  2  0  0  0  0
 17 20  2  0  0  0  0
 17 21  1  0  0  0  0
 18 22  1  0  0  0  0
 19 23  1  0  0  0  0
 20 24  1  0  0  0  0
 21 25  2  0  0  0  0
 22 26  2  0  0  0  0
 22 27  1  0  0  0  0
 24 28  2  0  0  0  0
 26 29  1  0  0  0  0
 27 30  2  0  0  0  0
 28 31  1  0  0  0  0
 29 32  2  0  0  0  0
 31 33  1  0  0  0  0
 32 34  1  0  0  0  0
 33 35  2  0  0  0  0
 33 36  1  0  0  0  0
 36 37  1  0  0  0  0
 37 38  1  0  0  0  0
 38 39  1  0  0  0  0
 39 40  1  0  0  0  0
 40 41  1  0  0  0  0
 41 42  1  0  0  0  0
 42 43  2  0  0  0  0
 42 44  1  0  0  0  0
 12 14  1  0  0  0  0
 14 18  1  0  0  0  0
 16 19  1  0  0  0  0
 25 28  1  0  0  0  0
 30 32  1  0  0  0  0
M  END
>  <MolRegNo>
2547342

>  <m>
=

>  <Value>
704.55

>  <Unit>
nM

>  <Type>
Ki

>  <pValue>
6.15

>  <Ligand Efficiency>
0.19

>  <Binding Efficiency>
9.94

>  <Surface Efficiency>
4.62

>  <Assay Index>
1467863

>  <Assay Category>


>  <Assay Organism>
Homo sapiens

>  <Target ID>
19

>  <Target Name>
Estrogen receptor alpha

>  <Target Organism>
Homo sapiens

>  <Target Description>
Target is a single protein chain

>  <Sequence Accession>
P03372

>  <Reference>


>  <Pubmed ID>
33965842

>  <DOI>
10.1016/j.bmc.2021.116185

$$$$
2564531
Actelion Java MolfileCreator 1.0

 44 48  0  0  0  0  0  0  0  0999 V2000
    0.0000   -0.0000   -0.0000 S   0  0  0  0  0  0  0  0  0  0  0  0
   -0.7672    1.3101   -0.0000 O   0  0  0  0  0  0  0  0  0  0  0  0
    0.7436    1.3101   -0.0000 O   0  0  0  0  0  0  0  0  0  0  0  0
    1.2865   -0.7436   -0.0000 N   0  0  0  0  0  0  0  0  0  0  0  0
   -1.2983   -0.7436   -0.0000 C   0  0  0  0  0  0  0  0  0  0  0  0
    2.5729    0.0118   -0.0000 C   0  0  0  0  0  0  0  0  0  0  0  0
    1.2747   -2.2307   -0.0000 C   0  0  0  0  0  0  0  0  0  0  0  0
   -2.6083    0.0236   -0.0000 C   0  0  0  0  0  0  0  0  0  0  0  0
   -1.3101   -2.2307   -0.0000 C   0  0  0  0  0  0  0  0  0  0  0  0
    2.5611    1.5107   -0.0000 C   0  0  0  0  0  0  0  0  0  0  0  0
    3.8476   -0.7436   -0.0000 C   0  0  0  0  0  0  0  0  0  0  0  0
   -2.2425   -1.4045   -0.0000 O   0  0  0  0  0  0  0  0  0  0  0  0
   -3.9184   -0.7199   -0.0000 C   0  0  0  0  0  0  0  0  0  0  0  0
   -2.6319   -2.8562   -0.0000 C   0  0  0  0  0  0  0  0  0  0  0  0
    3.8476    2.2661   -0.0000 C   0  0  0  0  0  0  0  0  0  0  0  0
    5.1341    0.0118   -0.0000 C   0  0  0  0  0  0  0  0  0  0  0  0
   -5.2285    0.0354   -0.0000 C   0  0  0  0  0  0  0  0  0  0  0  0
   -3.9302   -2.2071   -0.0000 C   0  0  0  0  0  0  0  0  0  0  0  0
    5.1459    1.5343   -0.0000 C   0  0  0  0  0  0  0  0  0  0  0  0
    3.8358    3.7650   -0.0000 C   0  0  0  0  0  0  0  0  0  0  0  0
   -5.2403    1.5461   -0.0000 C   0  0  0  0  0  0  0  0  0  0  0  0
   -6.5267   -0.7081   -0.0000 C   0  0  0  0  0  0  0  0  0  0  0  0
   -5.2403   -2.9388   -0.0000 C   0  0  0  0  0  0  0  0  0  0  0  0
   -6.5503    2.3015   -0.0000 C   0  0  0  0  0  0  0  0  0  0  0  0
   -7.8368    0.0472   -0.0000 C   0  0  0  0  0  0  0  0  0  0  0  0
   -6.5503   -2.1834   -0.0000 C   0  0  0  0  0  0  0  0  0  0  0  0
   -5.2521   -4.4141   -0.0000 C   0  0  0  0  0  0  0  0  0  0  0  0
   -7.8604    1.5697   -0.0000 C   0  0  0  0  0  0  0  0  0  0  0  0
   -7.8604   -2.9152   -0.0000 C   0  0  0  0  0  0  0  0  0  0  0  0
   -6.5503   -5.1577   -0.0000 C   0  0  0  0  0  0  0  0  0  0  0  0
   -9.1705    2.3251   -0.0000 N   0  0  0  0  0  0  0  0  0  0  0  0
   -7.8722   -4.4023   -0.0000 C   0  0  0  0  0  0  0  0  0  0  0  0
  -10.4805    1.5815   -0.0000 C   0  0  0  0  0  0  0  0  0  0  0  0
   -9.1823   -5.1459   -0.0000 O   0  0  0  0  0  0  0  0  0  0  0  0
  -10.4805    0.0944   -0.0000 O   0  0  0  0  0  0  0  0  0  0  0  0
  -11.7906    2.3369   -0.0000 C   0  0  0  0  0  0  0  0  0  0  0  0
  -13.1007    1.5933   -0.0000 C   0  0  0  0  0  0  0  0  0  0  0  0
  -14.4108    2.3487   -0.0000 C   0  0  0  0  0  0  0  0  0  0  0  0
  -15.7208    1.6051   -0.0000 C   0  0  0  0  0  0  0  0  0  0  0  0
  -17.0309    2.3605   -0.0000 C   0  0  0  0  0  0  0  0  0  0  0  0
  -18.3410    1.6169   -0.0000 C   0  0  0  0  0  0  0  0  0  0  0  0
  -19.6510    2.3723   -0.0000 C   0  0  0  0  0  0  0  0  0  0  0  0
  -19.6746    3.8830   -0.0000 O   0  0  0  0  0  0  0  0  0  0  0  0
  -20.9493    1.6287   -0.0000 O   0  0  0  0  0  0  0  0  0  0  0  0
  1  2  2  0  0  0  0
  1  3  2  0  0  0  0
  1  4  1  0  0  0  0
  1  5  1  0  0  0  0
  4  6  1  0  0  0  0
  4  7  1  0  0  0  0
  5  8  1  0  0  0  0
  5  9  1  0  0  0  0
  6 10  2  0  0  0  0
  6 11  1  0  0  0  0
  8 12  1  0  0  0  0
  8 13  1  0  0  0  0
  9 14  1  0  0  0  0
 10 15  1  0  0  0  0
 11 16  2  0  0  0  0
 13 17  1  0  0  0  0
 13 18  2  0  0  0  0
 15 19  2  0  0  0  0
 15 20  1  0  0  0  0
 17 21  2  0  0  0  0
 17 22  1  0  0  0  0
 18 23  1  0  0  0  0
 21 24  1  0  0  0  0
 22 25  2  0  0  0  0
 23 26  2  0  0  0  0
 23 27  1  0  0  0  0
 24 28  2  0  0  0  0
 26 29  1  0  0  0  0
 27 30  2  0  0  0  0
 28 31  1  0  0  0  0
 29 32  2  0  0  0  0
 31 33  1  0  0  0  0
 32 34  1  0  0  0  0
 33 35  2  0  0  0  0
 33 36  1  0  0  0  0
 36 37  1  0  0  0  0
 37 38  1  0  0  0  0
 38 39  1  0  0  0  0
 39 40  1  0  0  0  0
 40 41  1  0  0  0  0
 41 42  1  0  0  0  0
 42 43  2  0  0  0  0
 42 44  1  0  0  0  0
 12 14  1  0  0  0  0
 14 18  1  0  0  0  0
 16 19  1  0  0  0  0
 25 28  1  0  0  0  0
 30 32  1  0  0  0  0
M  END
>  <MolRegNo>
2564531

>  <m>
=

>  <Value>
84.24

>  <Unit>
nM

>  <Type>
Ki

>  <pValue>
7.07

>  <Ligand Efficiency>
0.22

>  <Binding Efficiency>
11.43

>  <Surface Efficiency>
5.31

>  <Assay Index>
1467863

>  <Assay Category>


>  <Assay Organism>
Homo sapiens

>  <Target ID>
19

>  <Target Name>
Estrogen receptor alpha

>  <Target Organism>
Homo sapiens

>  <Target Description>
Target is a single protein chain

>  <Sequence Accession>
P03372

>  <Reference>


>  <Pubmed ID>
33965842

>  <DOI>
10.1016/j.bmc.2021.116185

$$$$
2548962
Actelion Java MolfileCreator 1.0

 45 49  0  0  0  0  0  0  0  0999 V2000
    0.0000   -0.0000   -0.0000 S   0  0  0  0  0  0  0  0  0  0  0  0
   -0.7679    1.3114   -0.0000 O   0  0  0  0  0  0  0  0  0  0  0  0
    0.7443    1.3114   -0.0000 O   0  0  0  0  0  0  0  0  0  0  0  0
    1.2878   -0.7443   -0.0000 N   0  0  0  0  0  0  0  0  0  0  0  0
   -1.2996   -0.7443   -0.0000 C   0  0  0  0  0  0  0  0  0  0  0  0
    2.5755    0.0118   -0.0000 C   0  0  0  0  0  0  0  0  0  0  0  0
    1.2759   -2.2329   -0.0000 C   0  0  0  0  0  0  0  0  0  0  0  0
   -2.6110    0.0236   -0.0000 C   0  0  0  0  0  0  0  0  0  0  0  0
   -1.3114   -2.2329   -0.0000 C   0  0  0  0  0  0  0  0  0  0  0  0
    3.8515   -0.7443   -0.0000 C   0  0  0  0  0  0  0  0  0  0  0  0
    2.5637    1.5122   -0.0000 C   0  0  0  0  0  0  0  0  0  0  0  0
   -2.2447   -1.4059   -0.0000 O   0  0  0  0  0  0  0  0  0  0  0  0
   -3.9223   -0.7207   -0.0000 C   0  0  0  0  0  0  0  0  0  0  0  0
   -2.6346   -2.8591   -0.0000 C   0  0  0  0  0  0  0  0  0  0  0  0
    5.1392    0.0118   -0.0000 C   0  0  0  0  0  0  0  0  0  0  0  0
    3.8515    2.2683   -0.0000 C   0  0  0  0  0  0  0  0  0  0  0  0
   -5.2337    0.0354   -0.0000 C   0  0  0  0  0  0  0  0  0  0  0  0
   -3.9342   -2.2093   -0.0000 C   0  0  0  0  0  0  0  0  0  0  0  0
    5.1274    1.5240   -0.0000 C   0  0  0  0  0  0  0  0  0  0  0  0
   -5.2456    1.5477   -0.0000 C   0  0  0  0  0  0  0  0  0  0  0  0
   -6.5333   -0.7089   -0.0000 C   0  0  0  0  0  0  0  0  0  0  0  0
   -5.2456   -2.9418   -0.0000 C   0  0  0  0  0  0  0  0  0  0  0  0
    6.4034    2.2802   -0.0000 O   0  0  0  0  0  0  0  0  0  0  0  0
   -6.5569    2.3038   -0.0000 C   0  0  0  0  0  0  0  0  0  0  0  0
   -7.8447    0.0473   -0.0000 C   0  0  0  0  0  0  0  0  0  0  0  0
   -6.5569   -2.1856   -0.0000 C   0  0  0  0  0  0  0  0  0  0  0  0
   -5.2574   -4.4185   -0.0000 C   0  0  0  0  0  0  0  0  0  0  0  0
    7.6793    1.5477   -0.0000 C   0  0  0  0  0  0  0  0  0  0  0  0
   -7.8683    1.5713   -0.0000 C   0  0  0  0  0  0  0  0  0  0  0  0
   -7.8683   -2.9181   -0.0000 C   0  0  0  0  0  0  0  0  0  0  0  0
   -6.5569   -5.1629   -0.0000 C   0  0  0  0  0  0  0  0  0  0  0  0
   -9.1797    2.3274   -0.0000 N   0  0  0  0  0  0  0  0  0  0  0  0
   -7.8801   -4.4067   -0.0000 C   0  0  0  0  0  0  0  0  0  0  0  0
  -10.4911    1.5831   -0.0000 C   0  0  0  0  0  0  0  0  0  0  0  0
   -9.1915   -5.1510   -0.0000 O   0  0  0  0  0  0  0  0  0  0  0  0
  -10.4911    0.0945   -0.0000 O   0  0  0  0  0  0  0  0  0  0  0  0
  -11.8025    2.3392   -0.0000 C   0  0  0  0  0  0  0  0  0  0  0  0
  -13.1139    1.5949   -0.0000 C   0  0  0  0  0  0  0  0  0  0  0  0
  -14.4253    2.3510   -0.0000 C   0  0  0  0  0  0  0  0  0  0  0  0
  -15.7367    1.6067   -0.0000 C   0  0  0  0  0  0  0  0  0  0  0  0
  -17.0480    2.3629   -0.0000 C   0  0  0  0  0  0  0  0  0  0  0  0
  -18.3594    1.6186   -0.0000 C   0  0  0  0  0  0  0  0  0  0  0  0
  -19.6708    2.3747   -0.0000 C   0  0  0  0  0  0  0  0  0  0  0  0
  -19.6944    3.8869   -0.0000 O   0  0  0  0  0  0  0  0  0  0  0  0
  -20.9704    1.6304   -0.0000 O   0  0  0  0  0  0  0  0  0  0  0  0
  1  2  2  0  0  0  0
  1  3  2  0  0  0  0
  1  4  1  0  0  0  0
  1  5  1  0  0  0  0
  4  6  1  0  0  0  0
  4  7  1  0  0  0  0
  5  8  1  0  0  0  0
  5  9  1  0  0  0  0
  6 10  2  0  0  0  0
  6 11  1  0  0  0  0
  8 12  1  0  0  0  0
  8 13  1  0  0  0  0
  9 14  1  0  0  0  0
 10 15  1  0  0  0  0
 11 16  2  0  0  0  0
 13 17  1  0  0  0  0
 13 18  2  0  0  0  0
 15 19  2  0  0  0  0
 17 20  2  0  0  0  0
 17 21  1  0  0  0  0
 18 22  1  0  0  0  0
 19 23  1  0  0  0  0
 20 24  1  0  0  0  0
 21 25  2  0  0  0  0
 22 26  2  0  0  0  0
 22 27  1  0  0  0  0
 23 28  1  0  0  0  0
 24 29  2  0  0  0  0
 26 30  1  0  0  0  0
 27 31  2  0  0  0  0
 29 32  1  0  0  0  0
 30 33  2  0  0  0  0
 32 34  1  0  0  0  0
 33 35  1  0  0  0  0
 34 36  2  0  0  0  0
 34 37  1  0  0  0  0
 37 38  1  0  0  0  0
 38 39  1  0  0  0  0
 39 40  1  0  0  0  0
 40 41  1  0  0  0  0
 41 42  1  0  0  0  0
 42 43  1  0  0  0  0
 43 44  2  0  0  0  0
 43 45  1  0  0  0  0
 12 14  1  0  0  0  0
 14 18  1  0  0  0  0
 16 19  1  0  0  0  0
 25 29  1  0  0  0  0
 31 33  1  0  0  0  0
M  END
>  <MolRegNo>
2548962

>  <m>
=

>  <Value>
53.73

>  <Unit>
nM

>  <Type>
Ki

>  <pValue>
7.27

>  <Ligand Efficiency>
0.22

>  <Binding Efficiency>
11.45

>  <Surface Efficiency>
5.1

>  <Assay Index>
1467863

>  <Assay Category>


>  <Assay Organism>
Homo sapiens

>  <Target ID>
19

>  <Target Name>
Estrogen receptor alpha

>  <Target Organism>
Homo sapiens

>  <Target Description>
Target is a single protein chain

>  <Sequence Accession>
P03372

>  <Reference>


>  <Pubmed ID>
33965842

>  <DOI>
10.1016/j.bmc.2021.116185

$$$$
2545008
Actelion Java MolfileCreator 1.0

 45 49  0  0  0  0  0  0  0  0999 V2000
    0.0000   -0.0000   -0.0000 S   0  0  0  0  0  0  0  0  0  0  0  0
   -0.7673    1.3104   -0.0000 O   0  0  0  0  0  0  0  0  0  0  0  0
    0.7437    1.3104   -0.0000 O   0  0  0  0  0  0  0  0  0  0  0  0
    1.2868   -0.7437   -0.0000 N   0  0  0  0  0  0  0  0  0  0  0  0
   -1.2986   -0.7437   -0.0000 C   0  0  0  0  0  0  0  0  0  0  0  0
    2.5736    0.0118   -0.0000 C   0  0  0  0  0  0  0  0  0  0  0  0
    1.2750   -2.2312   -0.0000 C   0  0  0  0  0  0  0  0  0  0  0  0
   -2.6090    0.0236   -0.0000 C   0  0  0  0  0  0  0  0  0  0  0  0
   -1.3104   -2.2312   -0.0000 C   0  0  0  0  0  0  0  0  0  0  0  0
    2.5618    1.5111   -0.0000 C   0  0  0  0  0  0  0  0  0  0  0  0
    3.8485   -0.7437   -0.0000 C   0  0  0  0  0  0  0  0  0  0  0  0
   -2.2430   -1.4048   -0.0000 O   0  0  0  0  0  0  0  0  0  0  0  0
   -3.9194   -0.7201   -0.0000 C   0  0  0  0  0  0  0  0  0  0  0  0
   -2.6326   -2.8569   -0.0000 C   0  0  0  0  0  0  0  0  0  0  0  0
    3.8485    2.2666   -0.0000 C   0  0  0  0  0  0  0  0  0  0  0  0
    5.1353    0.0118   -0.0000 C   0  0  0  0  0  0  0  0  0  0  0  0
   -5.2298    0.0354   -0.0000 C   0  0  0  0  0  0  0  0  0  0  0  0
   -3.9312   -2.2076   -0.0000 C   0  0  0  0  0  0  0  0  0  0  0  0
    3.8367    3.7659   -0.0000 O   0  0  0  0  0  0  0  0  0  0  0  0
    5.1471    1.5347   -0.0000 C   0  0  0  0  0  0  0  0  0  0  0  0
   -5.2416    1.5465   -0.0000 C   0  0  0  0  0  0  0  0  0  0  0  0
   -6.5284   -0.7083   -0.0000 C   0  0  0  0  0  0  0  0  0  0  0  0
   -5.2416   -2.9395   -0.0000 C   0  0  0  0  0  0  0  0  0  0  0  0
    5.1117    4.5215   -0.0000 C   0  0  0  0  0  0  0  0  0  0  0  0
   -6.5520    2.3020   -0.0000 C   0  0  0  0  0  0  0  0  0  0  0  0
   -7.8388    0.0472   -0.0000 C   0  0  0  0  0  0  0  0  0  0  0  0
   -6.5520   -2.1840   -0.0000 C   0  0  0  0  0  0  0  0  0  0  0  0
   -5.2534   -4.4152   -0.0000 C   0  0  0  0  0  0  0  0  0  0  0  0
   -7.8624    1.5701   -0.0000 C   0  0  0  0  0  0  0  0  0  0  0  0
   -7.8624   -2.9159   -0.0000 C   0  0  0  0  0  0  0  0  0  0  0  0
   -6.5520   -5.1589   -0.0000 C   0  0  0  0  0  0  0  0  0  0  0  0
   -9.1728    2.3257   -0.0000 N   0  0  0  0  0  0  0  0  0  0  0  0
   -7.8742   -4.4034   -0.0000 C   0  0  0  0  0  0  0  0  0  0  0  0
  -10.4832    1.5819   -0.0000 C   0  0  0  0  0  0  0  0  0  0  0  0
   -9.1846   -5.1471   -0.0000 O   0  0  0  0  0  0  0  0  0  0  0  0
  -10.4832    0.0944   -0.0000 O   0  0  0  0  0  0  0  0  0  0  0  0
  -11.7936    2.3375   -0.0000 C   0  0  0  0  0  0  0  0  0  0  0  0
  -13.1040    1.5937   -0.0000 C   0  0  0  0  0  0  0  0  0  0  0  0
  -14.4143    2.3493   -0.0000 C   0  0  0  0  0  0  0  0  0  0  0  0
  -15.7247    1.6055   -0.0000 C   0  0  0  0  0  0  0  0  0  0  0  0
  -17.0351    2.3611   -0.0000 C   0  0  0  0  0  0  0  0  0  0  0  0
  -18.3455    1.6173   -0.0000 C   0  0  0  0  0  0  0  0  0  0  0  0
  -19.6559    2.3729   -0.0000 C   0  0  0  0  0  0  0  0  0  0  0  0
  -19.6795    3.8840   -0.0000 O   0  0  0  0  0  0  0  0  0  0  0  0
  -20.9545    1.6291   -0.0000 O   0  0  0  0  0  0  0  0  0  0  0  0
  1  2  2  0  0  0  0
  1  3  2  0  0  0  0
  1  4  1  0  0  0  0
  1  5  1  0  0  0  0
  4  6  1  0  0  0  0
  4  7  1  0  0  0  0
  5  8  1  0  0  0  0
  5  9  1  0  0  0  0
  6 10  2  0  0  0  0
  6 11  1  0  0  0  0
  8 12  1  0  0  0  0
  8 13  1  0  0  0  0
  9 14  1  0  0  0  0
 10 15  1  0  0  0  0
 11 16  2  0  0  0  0
 13 17  1  0  0  0  0
 13 18  2  0  0  0  0
 15 19  1  0  0  0  0
 15 20  2  0  0  0  0
 17 21  2  0  0  0  0
 17 22  1  0  0  0  0
 18 23  1  0  0  0  0
 19 24  1  0  0  0  0
 21 25  1  0  0  0  0
 22 26  2  0  0  0  0
 23 27  2  0  0  0  0
 23 28  1  0  0  0  0
 25 29  2  0  0  0  0
 27 30  1  0  0  0  0
 28 31  2  0  0  0  0
 29 32  1  0  0  0  0
 30 33  2  0  0  0  0
 32 34  1  0  0  0  0
 33 35  1  0  0  0  0
 34 36  2  0  0  0  0
 34 37  1  0  0  0  0
 37 38  1  0  0  0  0
 38 39  1  0  0  0  0
 39 40  1  0  0  0  0
 40 41  1  0  0  0  0
 41 42  1  0  0  0  0
 42 43  1  0  0  0  0
 43 44  2  0  0  0  0
 43 45  1  0  0  0  0
 12 14  1  0  0  0  0
 14 18  1  0  0  0  0
 16 20  1  0  0  0  0
 26 29  1  0  0  0  0
 31 33  1  0  0  0  0
M  END
>  <MolRegNo>
2545008

>  <m>
=

>  <Value>
208.05

>  <Unit>
nM

>  <Type>
Ki

>  <pValue>
6.68

>  <Ligand Efficiency>
0.2

>  <Binding Efficiency>
10.53

>  <Surface Efficiency>
4.69

>  <Assay Index>
1467863

>  <Assay Category>


>  <Assay Organism>
Homo sapiens

>  <Target ID>
19

>  <Target Name>
Estrogen receptor alpha

>  <Target Organism>
Homo sapiens

>  <Target Description>
Target is a single protein chain

>  <Sequence Accession>
P03372

>  <Reference>


>  <Pubmed ID>
33965842

>  <DOI>
10.1016/j.bmc.2021.116185

$$$$
2544916
Actelion Java MolfileCreator 1.0

 44 48  0  0  0  0  0  0  0  0999 V2000
    0.0000   -0.0000   -0.0000 S   0  0  0  0  0  0  0  0  0  0  0  0
   -0.7676    1.3109   -0.0000 O   0  0  0  0  0  0  0  0  0  0  0  0
    0.7440    1.3109   -0.0000 O   0  0  0  0  0  0  0  0  0  0  0  0
    1.2872   -0.7440   -0.0000 N   0  0  0  0  0  0  0  0  0  0  0  0
   -1.2991   -0.7440   -0.0000 C   0  0  0  0  0  0  0  0  0  0  0  0
    2.5745    0.0118   -0.0000 C   0  0  0  0  0  0  0  0  0  0  0  0
    1.2754   -2.2320   -0.0000 C   0  0  0  0  0  0  0  0  0  0  0  0
   -2.6099    0.0236   -0.0000 C   0  0  0  0  0  0  0  0  0  0  0  0
   -1.3109   -2.2320   -0.0000 C   0  0  0  0  0  0  0  0  0  0  0  0
    3.8499   -0.7440   -0.0000 C   0  0  0  0  0  0  0  0  0  0  0  0
    2.5627    1.5116   -0.0000 C   0  0  0  0  0  0  0  0  0  0  0  0
   -2.2438   -1.4053   -0.0000 O   0  0  0  0  0  0  0  0  0  0  0  0
   -3.9208   -0.7204   -0.0000 C   0  0  0  0  0  0  0  0  0  0  0  0
   -2.6335   -2.8579   -0.0000 C   0  0  0  0  0  0  0  0  0  0  0  0
    5.1372    0.0118   -0.0000 C   0  0  0  0  0  0  0  0  0  0  0  0
    3.8499    2.2674   -0.0000 C   0  0  0  0  0  0  0  0  0  0  0  0
   -5.2316    0.0354   -0.0000 C   0  0  0  0  0  0  0  0  0  0  0  0
   -3.9326   -2.2084   -0.0000 C   0  0  0  0  0  0  0  0  0  0  0  0
    5.1254    1.5234   -0.0000 C   0  0  0  0  0  0  0  0  0  0  0  0
   -5.2435    1.5471   -0.0000 C   0  0  0  0  0  0  0  0  0  0  0  0
   -6.5307   -0.7086   -0.0000 C   0  0  0  0  0  0  0  0  0  0  0  0
   -5.2435   -2.9406   -0.0000 C   0  0  0  0  0  0  0  0  0  0  0  0
    6.4008    2.2793   -0.0000 O   0  0  0  0  0  0  0  0  0  0  0  0
   -6.5543    2.3029   -0.0000 C   0  0  0  0  0  0  0  0  0  0  0  0
   -7.8416    0.0472   -0.0000 C   0  0  0  0  0  0  0  0  0  0  0  0
   -6.5543   -2.1848   -0.0000 C   0  0  0  0  0  0  0  0  0  0  0  0
   -5.2553   -4.4168   -0.0000 C   0  0  0  0  0  0  0  0  0  0  0  0
   -7.8652    1.5707   -0.0000 C   0  0  0  0  0  0  0  0  0  0  0  0
   -7.8652   -2.9170   -0.0000 C   0  0  0  0  0  0  0  0  0  0  0  0
   -6.5543   -5.1608   -0.0000 C   0  0  0  0  0  0  0  0  0  0  0  0
   -9.1760    2.3265   -0.0000 N   0  0  0  0  0  0  0  0  0  0  0  0
   -7.8770   -4.4050   -0.0000 C   0  0  0  0  0  0  0  0  0  0  0  0
  -10.4869    1.5825   -0.0000 C   0  0  0  0  0  0  0  0  0  0  0  0
   -9.1879   -5.1490   -0.0000 O   0  0  0  0  0  0  0  0  0  0  0  0
  -10.4869    0.0945   -0.0000 O   0  0  0  0  0  0  0  0  0  0  0  0
  -11.7978    2.3383   -0.0000 C   0  0  0  0  0  0  0  0  0  0  0  0
  -13.1086    1.5943   -0.0000 C   0  0  0  0  0  0  0  0  0  0  0  0
  -14.4195    2.3501   -0.0000 C   0  0  0  0  0  0  0  0  0  0  0  0
  -15.7304    1.6061   -0.0000 C   0  0  0  0  0  0  0  0  0  0  0  0
  -17.0412    2.3619   -0.0000 C   0  0  0  0  0  0  0  0  0  0  0  0
  -18.3521    1.6179   -0.0000 C   0  0  0  0  0  0  0  0  0  0  0  0
  -19.6630    2.3737   -0.0000 C   0  0  0  0  0  0  0  0  0  0  0  0
  -19.6866    3.8854   -0.0000 O   0  0  0  0  0  0  0  0  0  0  0  0
  -20.9620    1.6297   -0.0000 O   0  0  0  0  0  0  0  0  0  0  0  0
  1  2  2  0  0  0  0
  1  3  2  0  0  0  0
  1  4  1  0  0  0  0
  1  5  1  0  0  0  0
  4  6  1  0  0  0  0
  4  7  1  0  0  0  0
  5  8  1  0  0  0  0
  5  9  1  0  0  0  0
  6 10  2  0  0  0  0
  6 11  1  0  0  0  0
  8 12  1  0  0  0  0
  8 13  1  0  0  0  0
  9 14  1  0  0  0  0
 10 15  1  0  0  0  0
 11 16  2  0  0  0  0
 13 17  1  0  0  0  0
 13 18  2  0  0  0  0
 15 19  2  0  0  0  0
 17 20  2  0  0  0  0
 17 21  1  0  0  0  0
 18 22  1  0  0  0  0
 19 23  1  0  0  0  0
 20 24  1  0  0  0  0
 21 25  2  0  0  0  0
 22 26  2  0  0  0  0
 22 27  1  0  0  0  0
 24 28  2  0  0  0  0
 26 29  1  0  0  0  0
 27 30  2  0  0  0  0
 28 31  1  0  0  0  0
 29 32  2  0  0  0  0
 31 33  1  0  0  0  0
 32 34  1  0  0  0  0
 33 35  2  0  0  0  0
 33 36  1  0  0  0  0
 36 37  1  0  0  0  0
 37 38  1  0  0  0  0
 38 39  1  0  0  0  0
 39 40  1  0  0  0  0
 40 41  1  0  0  0  0
 41 42  1  0  0  0  0
 42 43  2  0  0  0  0
 42 44  1  0  0  0  0
 12 14  1  0  0  0  0
 14 18  1  0  0  0  0
 16 19  1  0  0  0  0
 25 28  1  0  0  0  0
 30 32  1  0  0  0  0
M  END
>  <MolRegNo>
2544916

>  <m>
=

>  <Value>
118.32

>  <Unit>
nM

>  <Type>
Ki

>  <pValue>
6.93

>  <Ligand Efficiency>
0.22

>  <Binding Efficiency>
11.16

>  <Surface Efficiency>
4.51

>  <Assay Index>
1467863

>  <Assay Category>


>  <Assay Organism>
Homo sapiens

>  <Target ID>
19

>  <Target Name>
Estrogen receptor alpha

>  <Target Organism>
Homo sapiens

>  <Target Description>
Target is a single protein chain

>  <Sequence Accession>
P03372

>  <Reference>


>  <Pubmed ID>
33965842

>  <DOI>
10.1016/j.bmc.2021.116185

$$$$
2549163
Actelion Java MolfileCreator 1.0

 44 48  0  0  0  0  0  0  0  0999 V2000
    0.0000   -0.0000   -0.0000 Cl  0  0  0  0  0  0  0  0  0  0  0  0
    0.0000    1.4973   -0.0000 C   0  0  0  0  0  0  0  0  0  0  0  0
   -1.2968    2.2754   -0.0000 C   0  0  0  0  0  0  0  0  0  0  0  0
    1.2850    2.2518   -0.0000 C   0  0  0  0  0  0  0  0  0  0  0  0
   -2.6055    1.5444   -0.0000 N   0  0  0  0  0  0  0  0  0  0  0  0
   -1.3086    3.7726   -0.0000 C   0  0  0  0  0  0  0  0  0  0  0  0
    1.2733    3.7608   -0.0000 C   0  0  0  0  0  0  0  0  0  0  0  0
   -3.9141    2.3107   -0.0000 S   0  0  0  0  0  0  0  0  0  0  0  0
   -2.6173    0.0589   -0.0000 C   0  0  0  0  0  0  0  0  0  0  0  0
   -0.0236    4.5271   -0.0000 C   0  0  0  0  0  0  0  0  0  0  0  0
   -4.6804    3.6194   -0.0000 O   0  0  0  0  0  0  0  0  0  0  0  0
   -3.1714    3.6194   -0.0000 O   0  0  0  0  0  0  0  0  0  0  0  0
   -5.2109    1.5680   -0.0000 C   0  0  0  0  0  0  0  0  0  0  0  0
   -6.5196    2.3343   -0.0000 C   0  0  0  0  0  0  0  0  0  0  0  0
   -5.2227    0.0825   -0.0000 C   0  0  0  0  0  0  0  0  0  0  0  0
   -6.1541    0.9078   -0.0000 O   0  0  0  0  0  0  0  0  0  0  0  0
   -7.8282    1.5916   -0.0000 C   0  0  0  0  0  0  0  0  0  0  0  0
   -6.5431   -0.5423   -0.0000 C   0  0  0  0  0  0  0  0  0  0  0  0
   -9.1368    2.3461   -0.0000 C   0  0  0  0  0  0  0  0  0  0  0  0
   -7.8400    0.1061   -0.0000 C   0  0  0  0  0  0  0  0  0  0  0  0
   -9.1486    3.8551   -0.0000 C   0  0  0  0  0  0  0  0  0  0  0  0
  -10.4337    1.6034   -0.0000 C   0  0  0  0  0  0  0  0  0  0  0  0
   -9.1486   -0.6248   -0.0000 C   0  0  0  0  0  0  0  0  0  0  0  0
  -10.4572    4.6097   -0.0000 C   0  0  0  0  0  0  0  0  0  0  0  0
  -11.7423    2.3579   -0.0000 C   0  0  0  0  0  0  0  0  0  0  0  0
  -10.4572    0.1297   -0.0000 C   0  0  0  0  0  0  0  0  0  0  0  0
   -9.1604   -2.0985   -0.0000 C   0  0  0  0  0  0  0  0  0  0  0  0
  -11.7659    3.8787   -0.0000 C   0  0  0  0  0  0  0  0  0  0  0  0
  -11.7659   -0.6013   -0.0000 C   0  0  0  0  0  0  0  0  0  0  0  0
  -10.4572   -2.8413   -0.0000 C   0  0  0  0  0  0  0  0  0  0  0  0
  -13.0745    4.6333   -0.0000 N   0  0  0  0  0  0  0  0  0  0  0  0
  -11.7777   -2.0867   -0.0000 C   0  0  0  0  0  0  0  0  0  0  0  0
  -14.3831    3.8905   -0.0000 C   0  0  0  0  0  0  0  0  0  0  0  0
  -13.0863   -2.8295   -0.0000 O   0  0  0  0  0  0  0  0  0  0  0  0
  -14.3831    2.4050   -0.0000 O   0  0  0  0  0  0  0  0  0  0  0  0
  -15.6917    4.6450   -0.0000 C   0  0  0  0  0  0  0  0  0  0  0  0
  -17.0004    3.9023   -0.0000 C   0  0  0  0  0  0  0  0  0  0  0  0
  -18.3090    4.6568   -0.0000 C   0  0  0  0  0  0  0  0  0  0  0  0
  -19.6176    3.9141   -0.0000 C   0  0  0  0  0  0  0  0  0  0  0  0
  -20.9263    4.6686   -0.0000 C   0  0  0  0  0  0  0  0  0  0  0  0
  -22.2349    3.9259   -0.0000 C   0  0  0  0  0  0  0  0  0  0  0  0
  -23.5435    4.6804   -0.0000 C   0  0  0  0  0  0  0  0  0  0  0  0
  -23.5671    6.1895   -0.0000 O   0  0  0  0  0  0  0  0  0  0  0  0
  -24.8404    3.9377   -0.0000 O   0  0  0  0  0  0  0  0  0  0  0  0
  1  2  1  0  0  0  0
  2  3  2  0  0  0  0
  2  4  1  0  0  0  0
  3  5  1  0  0  0  0
  3  6  1  0  0  0  0
  4  7  2  0  0  0  0
  5  8  1  0  0  0  0
  5  9  1  0  0  0  0
  6 10  2  0  0  0  0
  8 11  2  0  0  0  0
  8 12  2  0  0  0  0
  8 13  1  0  0  0  0
 13 14  1  0  0  0  0
 13 15  1  0  0  0  0
 14 16  1  0  0  0  0
 14 17  1  0  0  0  0
 15 18  1  0  0  0  0
 17 19  1  0  0  0  0
 17 20  2  0  0  0  0
 19 21  2  0  0  0  0
 19 22  1  0  0  0  0
 20 23  1  0  0  0  0
 21 24  1  0  0  0  0
 22 25  2  0  0  0  0
 23 26  2  0  0  0  0
 23 27  1  0  0  0  0
 24 28  2  0  0  0  0
 26 29  1  0  0  0  0
 27 30  2  0  0  0  0
 28 31  1  0  0  0  0
 29 32  2  0  0  0  0
 31 33  1  0  0  0  0
 32 34  1  0  0  0  0
 33 35  2  0  0  0  0
 33 36  1  0  0  0  0
 36 37  1  0  0  0  0
 37 38  1  0  0  0  0
 38 39  1  0  0  0  0
 39 40  1  0  0  0  0
 40 41  1  0  0  0  0
 41 42  1  0  0  0  0
 42 43  2  0  0  0  0
 42 44  1  0  0  0  0
  7 10  1  0  0  0  0
 16 18  1  0  0  0  0
 18 20  1  0  0  0  0
 25 28  1  0  0  0  0
 30 32  1  0  0  0  0
M  END
>  <MolRegNo>
2549163

>  <m>
=

>  <Value>
26.72

>  <Unit>
nM

>  <Type>
Ki

>  <pValue>
7.57

>  <Ligand Efficiency>
0.24

>  <Binding Efficiency>
11.85

>  <Surface Efficiency>
5.68

>  <Assay Index>
1467863

>  <Assay Category>


>  <Assay Organism>
Homo sapiens

>  <Target ID>
19

>  <Target Name>
Estrogen receptor alpha

>  <Target Organism>
Homo sapiens

>  <Target Description>
Target is a single protein chain

>  <Sequence Accession>
P03372

>  <Reference>


>  <Pubmed ID>
33965842

>  <DOI>
10.1016/j.bmc.2021.116185

$$$$
2561772
Actelion Java MolfileCreator 1.0

 44 48  0  0  0  0  0  0  0  0999 V2000
    0.0000   -0.0000   -0.0000 Cl  0  0  0  0  0  0  0  0  0  0  0  0
   -1.2975   -0.7313   -0.0000 C   0  0  0  0  0  0  0  0  0  0  0  0
   -1.3093   -2.2175   -0.0000 C   0  0  0  0  0  0  0  0  0  0  0  0
   -2.6186    0.0236   -0.0000 C   0  0  0  0  0  0  0  0  0  0  0  0
   -2.6186   -2.9488   -0.0000 C   0  0  0  0  0  0  0  0  0  0  0  0
   -3.9278   -0.7077   -0.0000 C   0  0  0  0  0  0  0  0  0  0  0  0
   -3.9160   -2.1703   -0.0000 C   0  0  0  0  0  0  0  0  0  0  0  0
   -5.2253   -2.9016   -0.0000 N   0  0  0  0  0  0  0  0  0  0  0  0
   -6.5346   -2.1349   -0.0000 S   0  0  0  0  0  0  0  0  0  0  0  0
   -5.2371   -4.3878   -0.0000 C   0  0  0  0  0  0  0  0  0  0  0  0
   -7.3013   -0.8257   -0.0000 O   0  0  0  0  0  0  0  0  0  0  0  0
   -5.7915   -0.8257   -0.0000 O   0  0  0  0  0  0  0  0  0  0  0  0
   -7.8321   -2.8780   -0.0000 C   0  0  0  0  0  0  0  0  0  0  0  0
   -9.1413   -2.1114   -0.0000 C   0  0  0  0  0  0  0  0  0  0  0  0
   -7.8439   -4.3643   -0.0000 C   0  0  0  0  0  0  0  0  0  0  0  0
   -8.7757   -3.5386   -0.0000 O   0  0  0  0  0  0  0  0  0  0  0  0
  -10.4506   -2.8545   -0.0000 C   0  0  0  0  0  0  0  0  0  0  0  0
   -9.1649   -4.9894   -0.0000 C   0  0  0  0  0  0  0  0  0  0  0  0
  -11.7599   -2.0996   -0.0000 C   0  0  0  0  0  0  0  0  0  0  0  0
  -10.4624   -4.3407   -0.0000 C   0  0  0  0  0  0  0  0  0  0  0  0
  -11.7717   -0.5898   -0.0000 C   0  0  0  0  0  0  0  0  0  0  0  0
  -13.0574   -2.8427   -0.0000 C   0  0  0  0  0  0  0  0  0  0  0  0
  -11.7717   -5.0720   -0.0000 C   0  0  0  0  0  0  0  0  0  0  0  0
  -13.0810    0.1651   -0.0000 C   0  0  0  0  0  0  0  0  0  0  0  0
  -14.3666   -2.0878   -0.0000 C   0  0  0  0  0  0  0  0  0  0  0  0
  -13.0810   -4.3171   -0.0000 C   0  0  0  0  0  0  0  0  0  0  0  0
  -11.7835   -6.5464   -0.0000 C   0  0  0  0  0  0  0  0  0  0  0  0
  -14.3902   -0.5662   -0.0000 C   0  0  0  0  0  0  0  0  0  0  0  0
  -14.3902   -5.0484   -0.0000 C   0  0  0  0  0  0  0  0  0  0  0  0
  -13.0810   -7.2895   -0.0000 C   0  0  0  0  0  0  0  0  0  0  0  0
  -15.6995    0.1887   -0.0000 N   0  0  0  0  0  0  0  0  0  0  0  0
  -14.4020   -6.5346   -0.0000 C   0  0  0  0  0  0  0  0  0  0  0  0
  -17.0088   -0.5544   -0.0000 C   0  0  0  0  0  0  0  0  0  0  0  0
  -15.7113   -7.2777   -0.0000 O   0  0  0  0  0  0  0  0  0  0  0  0
  -17.0088   -2.0406   -0.0000 O   0  0  0  0  0  0  0  0  0  0  0  0
  -18.3181    0.2005   -0.0000 C   0  0  0  0  0  0  0  0  0  0  0  0
  -19.6273   -0.5426   -0.0000 C   0  0  0  0  0  0  0  0  0  0  0  0
  -20.9366    0.2123   -0.0000 C   0  0  0  0  0  0  0  0  0  0  0  0
  -22.2459   -0.5308   -0.0000 C   0  0  0  0  0  0  0  0  0  0  0  0
  -23.5552    0.2241   -0.0000 C   0  0  0  0  0  0  0  0  0  0  0  0
  -24.8644   -0.5190   -0.0000 C   0  0  0  0  0  0  0  0  0  0  0  0
  -26.1737    0.2359   -0.0000 C   0  0  0  0  0  0  0  0  0  0  0  0
  -26.1973    1.7457   -0.0000 O   0  0  0  0  0  0  0  0  0  0  0  0
  -27.4712   -0.5072   -0.0000 O   0  0  0  0  0  0  0  0  0  0  0  0
  1  2  1  0  0  0  0
  2  3  2  0  0  0  0
  2  4  1  0  0  0  0
  3  5  1  0  0  0  0
  4  6  2  0  0  0  0
  5  7  2  0  0  0  0
  7  8  1  0  0  0  0
  8  9  1  0  0  0  0
  8 10  1  0  0  0  0
  9 11  2  0  0  0  0
  9 12  2  0  0  0  0
  9 13  1  0  0  0  0
 13 14  1  0  0  0  0
 13 15  1  0  0  0  0
 14 16  1  0  0  0  0
 14 17  1  0  0  0  0
 15 18  1  0  0  0  0
 17 19  1  0  0  0  0
 17 20  2  0  0  0  0
 19 21  2  0  0  0  0
 19 22  1  0  0  0  0
 20 23  1  0  0  0  0
 21 24  1  0  0  0  0
 22 25  2  0  0  0  0
 23 26  2  0  0  0  0
 23 27  1  0  0  0  0
 24 28  2  0  0  0  0
 26 29  1  0  0  0  0
 27 30  2  0  0  0  0
 28 31  1  0  0  0  0
 29 32  2  0  0  0  0
 31 33  1  0  0  0  0
 32 34  1  0  0  0  0
 33 35  2  0  0  0  0
 33 36  1  0  0  0  0
 36 37  1  0  0  0  0
 37 38  1  0  0  0  0
 38 39  1  0  0  0  0
 39 40  1  0  0  0  0
 40 41  1  0  0  0  0
 41 42  1  0  0  0  0
 42 43  2  0  0  0  0
 42 44  1  0  0  0  0
  6  7  1  0  0  0  0
 16 18  1  0  0  0  0
 18 20  1  0  0  0  0
 25 28  1  0  0  0  0
 30 32  1  0  0  0  0
M  END
>  <MolRegNo>
2561772

>  <m>
=

>  <Value>
185.63

>  <Unit>
nM

>  <Type>
Ki

>  <pValue>
6.73

>  <Ligand Efficiency>
0.21

>  <Binding Efficiency>
10.53

>  <Surface Efficiency>
5.05

>  <Assay Index>
1467863

>  <Assay Category>


>  <Assay Organism>
Homo sapiens

>  <Target ID>
19

>  <Target Name>
Estrogen receptor alpha

>  <Target Organism>
Homo sapiens

>  <Target Description>
Target is a single protein chain

>  <Sequence Accession>
P03372

>  <Reference>


>  <Pubmed ID>
33965842

>  <DOI>
10.1016/j.bmc.2021.116185

$$$$
2564803
Actelion Java MolfileCreator 1.0

 47 52  0  0  0  0  0  0  0  0999 V2000
    0.0000   -0.0000   -0.0000 S   0  0  0  0  0  0  0  0  0  0  0  0
   -0.7686    1.3125   -0.0000 O   0  0  0  0  0  0  0  0  0  0  0  0
    0.7449    1.3125   -0.0000 O   0  0  0  0  0  0  0  0  0  0  0  0
    1.2888   -0.7449   -0.0000 N   0  0  0  0  0  0  0  0  0  0  0  0
   -1.3007   -0.7449   -0.0000 C   0  0  0  0  0  0  0  0  0  0  0  0
    2.5777    0.0118   -0.0000 C   0  0  0  0  0  0  0  0  0  0  0  0
    1.2770   -2.2348   -0.0000 C   0  0  0  0  0  0  0  0  0  0  0  0
   -2.6131    0.0236   -0.0000 C   0  0  0  0  0  0  0  0  0  0  0  0
   -1.3125   -2.2348   -0.0000 C   0  0  0  0  0  0  0  0  0  0  0  0
    3.8547   -0.7331   -0.0000 C   0  0  0  0  0  0  0  0  0  0  0  0
    2.5658    1.5135   -0.0000 C   0  0  0  0  0  0  0  0  0  0  0  0
   -2.2466   -1.4071   -0.0000 O   0  0  0  0  0  0  0  0  0  0  0  0
   -3.9256   -0.7213   -0.0000 C   0  0  0  0  0  0  0  0  0  0  0  0
   -2.6368   -2.8614   -0.0000 C   0  0  0  0  0  0  0  0  0  0  0  0
    5.1435    0.0236   -0.0000 C   0  0  0  0  0  0  0  0  0  0  0  0
    3.8428   -2.2111   -0.0000 C   0  0  0  0  0  0  0  0  0  0  0  0
    3.8547    2.2702   -0.0000 C   0  0  0  0  0  0  0  0  0  0  0  0
   -5.2381    0.0355   -0.0000 C   0  0  0  0  0  0  0  0  0  0  0  0
   -3.9374   -2.2111   -0.0000 C   0  0  0  0  0  0  0  0  0  0  0  0
    5.1317    1.5371   -0.0000 C   0  0  0  0  0  0  0  0  0  0  0  0
    6.4205   -0.7094   -0.0000 C   0  0  0  0  0  0  0  0  0  0  0  0
    5.1317   -2.9560   -0.0000 C   0  0  0  0  0  0  0  0  0  0  0  0
   -5.2499    1.5490   -0.0000 C   0  0  0  0  0  0  0  0  0  0  0  0
   -6.5387   -0.7094   -0.0000 C   0  0  0  0  0  0  0  0  0  0  0  0
   -5.2499   -2.9442   -0.0000 C   0  0  0  0  0  0  0  0  0  0  0  0
    6.4087   -2.1875   -0.0000 C   0  0  0  0  0  0  0  0  0  0  0  0
   -6.5624    2.3057   -0.0000 C   0  0  0  0  0  0  0  0  0  0  0  0
   -7.8512    0.0473   -0.0000 C   0  0  0  0  0  0  0  0  0  0  0  0
   -6.5624   -2.1875   -0.0000 C   0  0  0  0  0  0  0  0  0  0  0  0
   -5.2617   -4.4222   -0.0000 C   0  0  0  0  0  0  0  0  0  0  0  0
   -7.8749    1.5726   -0.0000 C   0  0  0  0  0  0  0  0  0  0  0  0
   -7.8749   -2.9206   -0.0000 C   0  0  0  0  0  0  0  0  0  0  0  0
   -6.5624   -5.1671   -0.0000 C   0  0  0  0  0  0  0  0  0  0  0  0
   -9.1873    2.3294   -0.0000 N   0  0  0  0  0  0  0  0  0  0  0  0
   -7.8867   -4.4104   -0.0000 C   0  0  0  0  0  0  0  0  0  0  0  0
  -10.4998    1.5844   -0.0000 C   0  0  0  0  0  0  0  0  0  0  0  0
   -9.1992   -5.1553   -0.0000 O   0  0  0  0  0  0  0  0  0  0  0  0
  -10.4998    0.0946   -0.0000 O   0  0  0  0  0  0  0  0  0  0  0  0
  -11.8123    2.3412   -0.0000 C   0  0  0  0  0  0  0  0  0  0  0  0
  -13.1248    1.5963   -0.0000 C   0  0  0  0  0  0  0  0  0  0  0  0
  -14.4373    2.3530   -0.0000 C   0  0  0  0  0  0  0  0  0  0  0  0
  -15.7497    1.6081   -0.0000 C   0  0  0  0  0  0  0  0  0  0  0  0
  -17.0622    2.3648   -0.0000 C   0  0  0  0  0  0  0  0  0  0  0  0
  -18.3747    1.6199   -0.0000 C   0  0  0  0  0  0  0  0  0  0  0  0
  -19.6872    2.3766   -0.0000 C   0  0  0  0  0  0  0  0  0  0  0  0
  -19.7108    3.8901   -0.0000 O   0  0  0  0  0  0  0  0  0  0  0  0
  -20.9878    1.6317   -0.0000 O   0  0  0  0  0  0  0  0  0  0  0  0
  1  2  2  0  0  0  0
  1  3  2  0  0  0  0
  1  4  1  0  0  0  0
  1  5  1  0  0  0  0
  4  6  1  0  0  0  0
  4  7  1  0  0  0  0
  5  8  1  0  0  0  0
  5  9  1  0  0  0  0
  6 10  1  0  0  0  0
  6 11  2  0  0  0  0
  8 12  1  0  0  0  0
  8 13  1  0  0  0  0
  9 14  1  0  0  0  0
 10 15  1  0  0  0  0
 10 16  2  0  0  0  0
 11 17  1  0  0  0  0
 13 18  1  0  0  0  0
 13 19  2  0  0  0  0
 15 20  1  0  0  0  0
 15 21  2  0  0  0  0
 16 22  1  0  0  0  0
 18 23  2  0  0  0  0
 18 24  1  0  0  0  0
 19 25  1  0  0  0  0
 21 26  1  0  0  0  0
 23 27  1  0  0  0  0
 24 28  2  0  0  0  0
 25 29  2  0  0  0  0
 25 30  1  0  0  0  0
 27 31  2  0  0  0  0
 29 32  1  0  0  0  0
 30 33  2  0  0  0  0
 31 34  1  0  0  0  0
 32 35  2  0  0  0  0
 34 36  1  0  0  0  0
 35 37  1  0  0  0  0
 36 38  2  0  0  0  0
 36 39  1  0  0  0  0
 39 40  1  0  0  0  0
 40 41  1  0  0  0  0
 41 42  1  0  0  0  0
 42 43  1  0  0  0  0
 43 44  1  0  0  0  0
 44 45  1  0  0  0  0
 45 46  2  0  0  0  0
 45 47  1  0  0  0  0
 12 14  1  0  0  0  0
 14 19  1  0  0  0  0
 17 20  2  0  0  0  0
 22 26  2  0  0  0  0
 28 31  1  0  0  0  0
 33 35  1  0  0  0  0
M  END
>  <MolRegNo>
2564803

>  <m>
=

>  <Value>
1722.2

>  <Unit>
nM

>  <Type>
Ki

>  <pValue>
5.76

>  <Ligand Efficiency>
0.17

>  <Binding Efficiency>
8.8

>  <Surface Efficiency>
4.33

>  <Assay Index>
1467863

>  <Assay Category>


>  <Assay Organism>
Homo sapiens

>  <Target ID>
19

>  <Target Name>
Estrogen receptor alpha

>  <Target Organism>
Homo sapiens

>  <Target Description>
Target is a single protein chain

>  <Sequence Accession>
P03372

>  <Reference>


>  <Pubmed ID>
33965842

>  <DOI>
10.1016/j.bmc.2021.116185

$$$$
2543274
Actelion Java MolfileCreator 1.0

 44 48  0  0  0  0  0  0  0  0999 V2000
    0.0000   -0.0000   -0.0000 S   0  0  0  0  0  0  0  0  0  0  0  0
   -0.7675    1.3107   -0.0000 O   0  0  0  0  0  0  0  0  0  0  0  0
    0.7439    1.3107   -0.0000 O   0  0  0  0  0  0  0  0  0  0  0  0
    1.2871   -0.7439   -0.0000 N   0  0  0  0  0  0  0  0  0  0  0  0
   -1.2989   -0.7439   -0.0000 C   0  0  0  0  0  0  0  0  0  0  0  0
    2.5742    0.0118   -0.0000 C   0  0  0  0  0  0  0  0  0  0  0  0
    1.2753   -2.2317   -0.0000 C   0  0  0  0  0  0  0  0  0  0  0  0
   -2.6096    0.0236   -0.0000 C   0  0  0  0  0  0  0  0  0  0  0  0
   -1.3107   -2.2317   -0.0000 C   0  0  0  0  0  0  0  0  0  0  0  0
    3.8495   -0.7439   -0.0000 C   0  0  0  0  0  0  0  0  0  0  0  0
    2.5624    1.5114   -0.0000 C   0  0  0  0  0  0  0  0  0  0  0  0
   -0.0236   -2.9639   -0.0000 C   0  0  0  0  0  0  0  0  0  0  0  0
   -2.2436   -1.4052   -0.0000 O   0  0  0  0  0  0  0  0  0  0  0  0
   -3.9203   -0.7203   -0.0000 C   0  0  0  0  0  0  0  0  0  0  0  0
   -2.6332   -2.8576   -0.0000 C   0  0  0  0  0  0  0  0  0  0  0  0
    5.1366    0.0118   -0.0000 C   0  0  0  0  0  0  0  0  0  0  0  0
    3.8495    2.2672   -0.0000 C   0  0  0  0  0  0  0  0  0  0  0  0
   -5.2310    0.0354   -0.0000 C   0  0  0  0  0  0  0  0  0  0  0  0
   -3.9321   -2.2081   -0.0000 C   0  0  0  0  0  0  0  0  0  0  0  0
    5.1247    1.5233   -0.0000 C   0  0  0  0  0  0  0  0  0  0  0  0
   -5.2428    1.5469   -0.0000 C   0  0  0  0  0  0  0  0  0  0  0  0
   -6.5299   -0.7085   -0.0000 C   0  0  0  0  0  0  0  0  0  0  0  0
   -5.2428   -2.9402   -0.0000 C   0  0  0  0  0  0  0  0  0  0  0  0
   -6.5535    2.3026   -0.0000 C   0  0  0  0  0  0  0  0  0  0  0  0
   -7.8406    0.0472   -0.0000 C   0  0  0  0  0  0  0  0  0  0  0  0
   -6.5535   -2.1845   -0.0000 C   0  0  0  0  0  0  0  0  0  0  0  0
   -5.2546   -4.4163   -0.0000 C   0  0  0  0  0  0  0  0  0  0  0  0
   -7.8642    1.5705   -0.0000 C   0  0  0  0  0  0  0  0  0  0  0  0
   -7.8642   -2.9166   -0.0000 C   0  0  0  0  0  0  0  0  0  0  0  0
   -6.5535   -5.1602   -0.0000 C   0  0  0  0  0  0  0  0  0  0  0  0
   -9.1749    2.3262   -0.0000 N   0  0  0  0  0  0  0  0  0  0  0  0
   -7.8761   -4.4044   -0.0000 C   0  0  0  0  0  0  0  0  0  0  0  0
  -10.4857    1.5823   -0.0000 C   0  0  0  0  0  0  0  0  0  0  0  0
   -9.1868   -5.1484   -0.0000 O   0  0  0  0  0  0  0  0  0  0  0  0
  -10.4857    0.0945   -0.0000 O   0  0  0  0  0  0  0  0  0  0  0  0
  -11.7964    2.3380   -0.0000 C   0  0  0  0  0  0  0  0  0  0  0  0
  -13.1071    1.5941   -0.0000 C   0  0  0  0  0  0  0  0  0  0  0  0
  -14.4178    2.3498   -0.0000 C   0  0  0  0  0  0  0  0  0  0  0  0
  -15.7285    1.6059   -0.0000 C   0  0  0  0  0  0  0  0  0  0  0  0
  -17.0392    2.3616   -0.0000 C   0  0  0  0  0  0  0  0  0  0  0  0
  -18.3499    1.6177   -0.0000 C   0  0  0  0  0  0  0  0  0  0  0  0
  -19.6606    2.3734   -0.0000 C   0  0  0  0  0  0  0  0  0  0  0  0
  -19.6842    3.8849   -0.0000 O   0  0  0  0  0  0  0  0  0  0  0  0
  -20.9595    1.6295   -0.0000 O   0  0  0  0  0  0  0  0  0  0  0  0
  1  2  2  0  0  0  0
  1  3  2  0  0  0  0
  1  4  1  0  0  0  0
  1  5  1  0  0  0  0
  4  6  1  0  0  0  0
  4  7  1  0  0  0  0
  5  8  1  0  0  0  0
  5  9  1  0  0  0  0
  6 10  2  0  0  0  0
  6 11  1  0  0  0  0
  7 12  1  0  0  0  0
  8 13  1  0  0  0  0
  8 14  1  0  0  0  0
  9 15  1  0  0  0  0
 10 16  1  0  0  0  0
 11 17  2  0  0  0  0
 14 18  1  0  0  0  0
 14 19  2  0  0  0  0
 16 20  2  0  0  0  0
 18 21  2  0  0  0  0
 18 22  1  0  0  0  0
 19 23  1  0  0  0  0
 21 24  1  0  0  0  0
 22 25  2  0  0  0  0
 23 26  2  0  0  0  0
 23 27  1  0  0  0  0
 24 28  2  0  0  0  0
 26 29  1  0  0  0  0
 27 30  2  0  0  0  0
 28 31  1  0  0  0  0
 29 32  2  0  0  0  0
 31 33  1  0  0  0  0
 32 34  1  0  0  0  0
 33 35  2  0  0  0  0
 33 36  1  0  0  0  0
 36 37  1  0  0  0  0
 37 38  1  0  0  0  0
 38 39  1  0  0  0  0
 39 40  1  0  0  0  0
 40 41  1  0  0  0  0
 41 42  1  0  0  0  0
 42 43  2  0  0  0  0
 42 44  1  0  0  0  0
 13 15  1  0  0  0  0
 15 19  1  0  0  0  0
 17 20  1  0  0  0  0
 25 28  1  0  0  0  0
 30 32  1  0  0  0  0
M  END
>  <MolRegNo>
2543274

>  <m>
=

>  <Value>
260.5

>  <Unit>
nM

>  <Type>
Ki

>  <pValue>
6.58

>  <Ligand Efficiency>
0.2

>  <Binding Efficiency>
10.64

>  <Surface Efficiency>
4.94

>  <Assay Index>
1467863

>  <Assay Category>


>  <Assay Organism>
Homo sapiens

>  <Target ID>
19

>  <Target Name>
Estrogen receptor alpha

>  <Target Organism>
Homo sapiens

>  <Target Description>
Target is a single protein chain

>  <Sequence Accession>
P03372

>  <Reference>


>  <Pubmed ID>
33965842

>  <DOI>
10.1016/j.bmc.2021.116185

$$$$
2567946
Actelion Java MolfileCreator 1.0

 45 49  0  0  0  0  0  0  0  0999 V2000
    0.0000   -0.0000   -0.0000 S   0  0  0  0  0  0  0  0  0  0  0  0
   -0.7677    1.3110   -0.0000 O   0  0  0  0  0  0  0  0  0  0  0  0
    0.7441    1.3110   -0.0000 O   0  0  0  0  0  0  0  0  0  0  0  0
    1.2874   -0.7441   -0.0000 N   0  0  0  0  0  0  0  0  0  0  0  0
   -1.2992   -0.7441   -0.0000 C   0  0  0  0  0  0  0  0  0  0  0  0
    2.5748    0.0118   -0.0000 C   0  0  0  0  0  0  0  0  0  0  0  0
    1.2756   -2.2323   -0.0000 C   0  0  0  0  0  0  0  0  0  0  0  0
   -2.6102    0.0236   -0.0000 C   0  0  0  0  0  0  0  0  0  0  0  0
   -1.3110   -2.2323   -0.0000 C   0  0  0  0  0  0  0  0  0  0  0  0
    3.8504   -0.7441   -0.0000 C   0  0  0  0  0  0  0  0  0  0  0  0
    2.5630    1.5118   -0.0000 C   0  0  0  0  0  0  0  0  0  0  0  0
   -0.0236   -2.9646   -0.0000 C   0  0  0  0  0  0  0  0  0  0  0  0
   -2.2441   -1.4055   -0.0000 O   0  0  0  0  0  0  0  0  0  0  0  0
   -3.9213   -0.7205   -0.0000 C   0  0  0  0  0  0  0  0  0  0  0  0
   -2.6339   -2.8583   -0.0000 C   0  0  0  0  0  0  0  0  0  0  0  0
    5.1378    0.0118   -0.0000 C   0  0  0  0  0  0  0  0  0  0  0  0
    3.8504    2.2677   -0.0000 C   0  0  0  0  0  0  0  0  0  0  0  0
   -5.2323    0.0354   -0.0000 C   0  0  0  0  0  0  0  0  0  0  0  0
   -3.9331   -2.2087   -0.0000 C   0  0  0  0  0  0  0  0  0  0  0  0
    5.1260    1.5236   -0.0000 C   0  0  0  0  0  0  0  0  0  0  0  0
   -5.2441    1.5472   -0.0000 C   0  0  0  0  0  0  0  0  0  0  0  0
   -6.5315   -0.7087   -0.0000 C   0  0  0  0  0  0  0  0  0  0  0  0
   -5.2441   -2.9409   -0.0000 C   0  0  0  0  0  0  0  0  0  0  0  0
    6.4016    2.2795   -0.0000 C   0  0  0  0  0  0  0  0  0  0  0  0
   -6.5551    2.3031   -0.0000 C   0  0  0  0  0  0  0  0  0  0  0  0
   -7.8425    0.0472   -0.0000 C   0  0  0  0  0  0  0  0  0  0  0  0
   -6.5551   -2.1850   -0.0000 C   0  0  0  0  0  0  0  0  0  0  0  0
   -5.2559   -4.4173   -0.0000 C   0  0  0  0  0  0  0  0  0  0  0  0
   -7.8661    1.5709   -0.0000 C   0  0  0  0  0  0  0  0  0  0  0  0
   -7.8661   -2.9173   -0.0000 C   0  0  0  0  0  0  0  0  0  0  0  0
   -6.5551   -5.1614   -0.0000 C   0  0  0  0  0  0  0  0  0  0  0  0
   -9.1771    2.3268   -0.0000 N   0  0  0  0  0  0  0  0  0  0  0  0
   -7.8779   -4.4055   -0.0000 C   0  0  0  0  0  0  0  0  0  0  0  0
  -10.4882    1.5827   -0.0000 C   0  0  0  0  0  0  0  0  0  0  0  0
   -9.1890   -5.1496   -0.0000 O   0  0  0  0  0  0  0  0  0  0  0  0
  -10.4882    0.0945   -0.0000 O   0  0  0  0  0  0  0  0  0  0  0  0
  -11.7992    2.3386   -0.0000 C   0  0  0  0  0  0  0  0  0  0  0  0
  -13.1102    1.5945   -0.0000 C   0  0  0  0  0  0  0  0  0  0  0  0
  -14.4212    2.3504   -0.0000 C   0  0  0  0  0  0  0  0  0  0  0  0
  -15.7323    1.6063   -0.0000 C   0  0  0  0  0  0  0  0  0  0  0  0
  -17.0433    2.3622   -0.0000 C   0  0  0  0  0  0  0  0  0  0  0  0
  -18.3543    1.6181   -0.0000 C   0  0  0  0  0  0  0  0  0  0  0  0
  -19.6653    2.3740   -0.0000 C   0  0  0  0  0  0  0  0  0  0  0  0
  -19.6889    3.8858   -0.0000 O   0  0  0  0  0  0  0  0  0  0  0  0
  -20.9645    1.6299   -0.0000 O   0  0  0  0  0  0  0  0  0  0  0  0
  1  2  2  0  0  0  0
  1  3  2  0  0  0  0
  1  4  1  0  0  0  0
  1  5  1  0  0  0  0
  4  6  1  0  0  0  0
  4  7  1  0  0  0  0
  5  8  1  0  0  0  0
  5  9  1  0  0  0  0
  6 10  2  0  0  0  0
  6 11  1  0  0  0  0
  7 12  1  0  0  0  0
  8 13  1  0  0  0  0
  8 14  1  0  0  0  0
  9 15  1  0  0  0  0
 10 16  1  0  0  0  0
 11 17  2  0  0  0  0
 14 18  1  0  0  0  0
 14 19  2  0  0  0  0
 16 20  2  0  0  0  0
 18 21  2  0  0  0  0
 18 22  1  0  0  0  0
 19 23  1  0  0  0  0
 20 24  1  0  0  0  0
 21 25  1  0  0  0  0
 22 26  2  0  0  0  0
 23 27  2  0  0  0  0
 23 28  1  0  0  0  0
 25 29  2  0  0  0  0
 27 30  1  0  0  0  0
 28 31  2  0  0  0  0
 29 32  1  0  0  0  0
 30 33  2  0  0  0  0
 32 34  1  0  0  0  0
 33 35  1  0  0  0  0
 34 36  2  0  0  0  0
 34 37  1  0  0  0  0
 37 38  1  0  0  0  0
 38 39  1  0  0  0  0
 39 40  1  0  0  0  0
 40 41  1  0  0  0  0
 41 42  1  0  0  0  0
 42 43  1  0  0  0  0
 43 44  2  0  0  0  0
 43 45  1  0  0  0  0
 13 15  1  0  0  0  0
 15 19  1  0  0  0  0
 17 20  1  0  0  0  0
 26 29  1  0  0  0  0
 31 33  1  0  0  0  0
M  END
>  <MolRegNo>
2567946

>  <m>
=

>  <Value>
1409.1

>  <Unit>
nM

>  <Type>
Ki

>  <pValue>
5.85

>  <Ligand Efficiency>
0.18

>  <Binding Efficiency>
9.25

>  <Surface Efficiency>
4.39

>  <Assay Index>
1467863

>  <Assay Category>


>  <Assay Organism>
Homo sapiens

>  <Target ID>
19

>  <Target Name>
Estrogen receptor alpha

>  <Target Organism>
Homo sapiens

>  <Target Description>
Target is a single protein chain

>  <Sequence Accession>
P03372

>  <Reference>


>  <Pubmed ID>
33965842

>  <DOI>
10.1016/j.bmc.2021.116185

$$$$
2567083
Actelion Java MolfileCreator 1.0

 45 49  0  0  0  0  0  0  0  0999 V2000
    0.0000   -0.0000   -0.0000 S   0  0  0  0  0  0  0  0  0  0  0  0
   -0.7673    1.3102   -0.0000 O   0  0  0  0  0  0  0  0  0  0  0  0
    0.7437    1.3102   -0.0000 O   0  0  0  0  0  0  0  0  0  0  0  0
    1.2866   -0.7437   -0.0000 N   0  0  0  0  0  0  0  0  0  0  0  0
   -1.2984   -0.7437   -0.0000 C   0  0  0  0  0  0  0  0  0  0  0  0
    2.5733    0.0118   -0.0000 C   0  0  0  0  0  0  0  0  0  0  0  0
    1.2748   -2.2310   -0.0000 C   0  0  0  0  0  0  0  0  0  0  0  0
   -2.6087    0.0236   -0.0000 C   0  0  0  0  0  0  0  0  0  0  0  0
   -1.3102   -2.2310   -0.0000 C   0  0  0  0  0  0  0  0  0  0  0  0
    2.5615    1.5109   -0.0000 C   0  0  0  0  0  0  0  0  0  0  0  0
    3.8481   -0.7437   -0.0000 C   0  0  0  0  0  0  0  0  0  0  0  0
   -0.0236   -2.9628   -0.0000 C   0  0  0  0  0  0  0  0  0  0  0  0
   -2.2428   -1.4047   -0.0000 O   0  0  0  0  0  0  0  0  0  0  0  0
   -3.9189   -0.7200   -0.0000 C   0  0  0  0  0  0  0  0  0  0  0  0
   -2.6323   -2.8566   -0.0000 C   0  0  0  0  0  0  0  0  0  0  0  0
    3.8481    2.2664   -0.0000 C   0  0  0  0  0  0  0  0  0  0  0  0
    5.1347    0.0118   -0.0000 C   0  0  0  0  0  0  0  0  0  0  0  0
   -5.2292    0.0354   -0.0000 C   0  0  0  0  0  0  0  0  0  0  0  0
   -3.9307   -2.2073   -0.0000 C   0  0  0  0  0  0  0  0  0  0  0  0
    5.1465    1.5345   -0.0000 C   0  0  0  0  0  0  0  0  0  0  0  0
    3.8363    3.7655   -0.0000 C   0  0  0  0  0  0  0  0  0  0  0  0
   -5.2410    1.5463   -0.0000 C   0  0  0  0  0  0  0  0  0  0  0  0
   -6.5276   -0.7082   -0.0000 C   0  0  0  0  0  0  0  0  0  0  0  0
   -5.2410   -2.9392   -0.0000 C   0  0  0  0  0  0  0  0  0  0  0  0
   -6.5512    2.3018   -0.0000 C   0  0  0  0  0  0  0  0  0  0  0  0
   -7.8378    0.0472   -0.0000 C   0  0  0  0  0  0  0  0  0  0  0  0
   -6.5512   -2.1837   -0.0000 C   0  0  0  0  0  0  0  0  0  0  0  0
   -5.2528   -4.4147   -0.0000 C   0  0  0  0  0  0  0  0  0  0  0  0
   -7.8614    1.5699   -0.0000 C   0  0  0  0  0  0  0  0  0  0  0  0
   -7.8614   -2.9156   -0.0000 C   0  0  0  0  0  0  0  0  0  0  0  0
   -6.5512   -5.1583   -0.0000 C   0  0  0  0  0  0  0  0  0  0  0  0
   -9.1717    2.3254   -0.0000 N   0  0  0  0  0  0  0  0  0  0  0  0
   -7.8733   -4.4029   -0.0000 C   0  0  0  0  0  0  0  0  0  0  0  0
  -10.4819    1.5817   -0.0000 C   0  0  0  0  0  0  0  0  0  0  0  0
   -9.1835   -5.1465   -0.0000 O   0  0  0  0  0  0  0  0  0  0  0  0
  -10.4819    0.0944   -0.0000 O   0  0  0  0  0  0  0  0  0  0  0  0
  -11.7922    2.3372   -0.0000 C   0  0  0  0  0  0  0  0  0  0  0  0
  -13.1024    1.5935   -0.0000 C   0  0  0  0  0  0  0  0  0  0  0  0
  -14.4127    2.3490   -0.0000 C   0  0  0  0  0  0  0  0  0  0  0  0
  -15.7229    1.6053   -0.0000 C   0  0  0  0  0  0  0  0  0  0  0  0
  -17.0331    2.3608   -0.0000 C   0  0  0  0  0  0  0  0  0  0  0  0
  -18.3434    1.6171   -0.0000 C   0  0  0  0  0  0  0  0  0  0  0  0
  -19.6536    2.3726   -0.0000 C   0  0  0  0  0  0  0  0  0  0  0  0
  -19.6772    3.8835   -0.0000 O   0  0  0  0  0  0  0  0  0  0  0  0
  -20.9521    1.6289   -0.0000 O   0  0  0  0  0  0  0  0  0  0  0  0
  1  2  2  0  0  0  0
  1  3  2  0  0  0  0
  1  4  1  0  0  0  0
  1  5  1  0  0  0  0
  4  6  1  0  0  0  0
  4  7  1  0  0  0  0
  5  8  1  0  0  0  0
  5  9  1  0  0  0  0
  6 10  2  0  0  0  0
  6 11  1  0  0  0  0
  7 12  1  0  0  0  0
  8 13  1  0  0  0  0
  8 14  1  0  0  0  0
  9 15  1  0  0  0  0
 10 16  1  0  0  0  0
 11 17  2  0  0  0  0
 14 18  1  0  0  0  0
 14 19  2  0  0  0  0
 16 20  2  0  0  0  0
 16 21  1  0  0  0  0
 18 22  2  0  0  0  0
 18 23  1  0  0  0  0
 19 24  1  0  0  0  0
 22 25  1  0  0  0  0
 23 26  2  0  0  0  0
 24 27  2  0  0  0  0
 24 28  1  0  0  0  0
 25 29  2  0  0  0  0
 27 30  1  0  0  0  0
 28 31  2  0  0  0  0
 29 32  1  0  0  0  0
 30 33  2  0  0  0  0
 32 34  1  0  0  0  0
 33 35  1  0  0  0  0
 34 36  2  0  0  0  0
 34 37  1  0  0  0  0
 37 38  1  0  0  0  0
 38 39  1  0  0  0  0
 39 40  1  0  0  0  0
 40 41  1  0  0  0  0
 41 42  1  0  0  0  0
 42 43  1  0  0  0  0
 43 44  2  0  0  0  0
 43 45  1  0  0  0  0
 13 15  1  0  0  0  0
 15 19  1  0  0  0  0
 17 20  1  0  0  0  0
 26 29  1  0  0  0  0
 31 33  1  0  0  0  0
M  END
>  <MolRegNo>
2567083

>  <m>
=

>  <Value>
1000

>  <Unit>
nM

>  <Type>
Ki

>  <pValue>
6

>  <Ligand Efficiency>
0.18

>  <Binding Efficiency>
9.48

>  <Surface Efficiency>
4.5

>  <Assay Index>
1467863

>  <Assay Category>


>  <Assay Organism>
Homo sapiens

>  <Target ID>
19

>  <Target Name>
Estrogen receptor alpha

>  <Target Organism>
Homo sapiens

>  <Target Description>
Target is a single protein chain

>  <Sequence Accession>
P03372

>  <Reference>


>  <Pubmed ID>
33965842

>  <DOI>
10.1016/j.bmc.2021.116185

$$$$
2555730
Actelion Java MolfileCreator 1.0

 46 50  0  0  0  0  0  0  0  0999 V2000
    0.0000   -0.0000   -0.0000 S   0  0  0  0  0  0  0  0  0  0  0  0
   -0.7680    1.3115   -0.0000 O   0  0  0  0  0  0  0  0  0  0  0  0
    0.7444    1.3115   -0.0000 O   0  0  0  0  0  0  0  0  0  0  0  0
    1.2879   -0.7444   -0.0000 N   0  0  0  0  0  0  0  0  0  0  0  0
   -1.2997   -0.7444   -0.0000 C   0  0  0  0  0  0  0  0  0  0  0  0
    2.5758    0.0118   -0.0000 C   0  0  0  0  0  0  0  0  0  0  0  0
    1.2761   -2.2331   -0.0000 C   0  0  0  0  0  0  0  0  0  0  0  0
   -2.6112    0.0236   -0.0000 C   0  0  0  0  0  0  0  0  0  0  0  0
   -1.3115   -2.2331   -0.0000 C   0  0  0  0  0  0  0  0  0  0  0  0
    3.8519   -0.7444   -0.0000 C   0  0  0  0  0  0  0  0  0  0  0  0
    2.5640    1.5124   -0.0000 C   0  0  0  0  0  0  0  0  0  0  0  0
   -0.0236   -2.9657   -0.0000 C   0  0  0  0  0  0  0  0  0  0  0  0
   -2.2450   -1.4061   -0.0000 O   0  0  0  0  0  0  0  0  0  0  0  0
   -3.9228   -0.7208   -0.0000 C   0  0  0  0  0  0  0  0  0  0  0  0
   -2.6349   -2.8594   -0.0000 C   0  0  0  0  0  0  0  0  0  0  0  0
    5.1398    0.0118   -0.0000 C   0  0  0  0  0  0  0  0  0  0  0  0
    3.8519    2.2686   -0.0000 C   0  0  0  0  0  0  0  0  0  0  0  0
   -5.2343    0.0354   -0.0000 C   0  0  0  0  0  0  0  0  0  0  0  0
   -3.9346   -2.2095   -0.0000 C   0  0  0  0  0  0  0  0  0  0  0  0
    5.1280    1.5242   -0.0000 C   0  0  0  0  0  0  0  0  0  0  0  0
   -5.2461    1.5478   -0.0000 C   0  0  0  0  0  0  0  0  0  0  0  0
   -6.5340   -0.7089   -0.0000 C   0  0  0  0  0  0  0  0  0  0  0  0
   -5.2461   -2.9421   -0.0000 C   0  0  0  0  0  0  0  0  0  0  0  0
    6.4041    2.2804   -0.0000 O   0  0  0  0  0  0  0  0  0  0  0  0
   -6.5577    2.3040   -0.0000 C   0  0  0  0  0  0  0  0  0  0  0  0
   -7.8456    0.0473   -0.0000 C   0  0  0  0  0  0  0  0  0  0  0  0
   -6.5577   -2.1859   -0.0000 C   0  0  0  0  0  0  0  0  0  0  0  0
   -5.2579   -4.4190   -0.0000 C   0  0  0  0  0  0  0  0  0  0  0  0
    7.6801    1.5478   -0.0000 C   0  0  0  0  0  0  0  0  0  0  0  0
   -7.8692    1.5715   -0.0000 C   0  0  0  0  0  0  0  0  0  0  0  0
   -7.8692   -2.9185   -0.0000 C   0  0  0  0  0  0  0  0  0  0  0  0
   -6.5577   -5.1634   -0.0000 C   0  0  0  0  0  0  0  0  0  0  0  0
   -9.1807    2.3277   -0.0000 N   0  0  0  0  0  0  0  0  0  0  0  0
   -7.8810   -4.4072   -0.0000 C   0  0  0  0  0  0  0  0  0  0  0  0
  -10.4922    1.5833   -0.0000 C   0  0  0  0  0  0  0  0  0  0  0  0
   -9.1925   -5.1516   -0.0000 O   0  0  0  0  0  0  0  0  0  0  0  0
  -10.4922    0.0945   -0.0000 O   0  0  0  0  0  0  0  0  0  0  0  0
  -11.8038    2.3395   -0.0000 C   0  0  0  0  0  0  0  0  0  0  0  0
  -13.1153    1.5951   -0.0000 C   0  0  0  0  0  0  0  0  0  0  0  0
  -14.4268    2.3513   -0.0000 C   0  0  0  0  0  0  0  0  0  0  0  0
  -15.7384    1.6069   -0.0000 C   0  0  0  0  0  0  0  0  0  0  0  0
  -17.0499    2.3631   -0.0000 C   0  0  0  0  0  0  0  0  0  0  0  0
  -18.3614    1.6187   -0.0000 C   0  0  0  0  0  0  0  0  0  0  0  0
  -19.6730    2.3749   -0.0000 C   0  0  0  0  0  0  0  0  0  0  0  0
  -19.6966    3.8873   -0.0000 O   0  0  0  0  0  0  0  0  0  0  0  0
  -20.9727    1.6306   -0.0000 O   0  0  0  0  0  0  0  0  0  0  0  0
  1  2  2  0  0  0  0
  1  3  2  0  0  0  0
  1  4  1  0  0  0  0
  1  5  1  0  0  0  0
  4  6  1  0  0  0  0
  4  7  1  0  0  0  0
  5  8  1  0  0  0  0
  5  9  1  0  0  0  0
  6 10  2  0  0  0  0
  6 11  1  0  0  0  0
  7 12  1  0  0  0  0
  8 13  1  0  0  0  0
  8 14  1  0  0  0  0
  9 15  1  0  0  0  0
 10 16  1  0  0  0  0
 11 17  2  0  0  0  0
 14 18  1  0  0  0  0
 14 19  2  0  0  0  0
 16 20  2  0  0  0  0
 18 21  2  0  0  0  0
 18 22  1  0  0  0  0
 19 23  1  0  0  0  0
 20 24  1  0  0  0  0
 21 25  1  0  0  0  0
 22 26  2  0  0  0  0
 23 27  2  0  0  0  0
 23 28  1  0  0  0  0
 24 29  1  0  0  0  0
 25 30  2  0  0  0  0
 27 31  1  0  0  0  0
 28 32  2  0  0  0  0
 30 33  1  0  0  0  0
 31 34  2  0  0  0  0
 33 35  1  0  0  0  0
 34 36  1  0  0  0  0
 35 37  2  0  0  0  0
 35 38  1  0  0  0  0
 38 39  1  0  0  0  0
 39 40  1  0  0  0  0
 40 41  1  0  0  0  0
 41 42  1  0  0  0  0
 42 43  1  0  0  0  0
 43 44  1  0  0  0  0
 44 45  2  0  0  0  0
 44 46  1  0  0  0  0
 13 15  1  0  0  0  0
 15 19  1  0  0  0  0
 17 20  1  0  0  0  0
 26 30  1  0  0  0  0
 32 34  1  0  0  0  0
M  END
>  <MolRegNo>
2555730

>  <m>
=

>  <Value>
673.91

>  <Unit>
nM

>  <Type>
Ki

>  <pValue>
6.17

>  <Ligand Efficiency>
0.18

>  <Binding Efficiency>
9.51

>  <Surface Efficiency>
4.33

>  <Assay Index>
1467863

>  <Assay Category>


>  <Assay Organism>
Homo sapiens

>  <Target ID>
19

>  <Target Name>
Estrogen receptor alpha

>  <Target Organism>
Homo sapiens

>  <Target Description>
Target is a single protein chain

>  <Sequence Accession>
P03372

>  <Reference>


>  <Pubmed ID>
33965842

>  <DOI>
10.1016/j.bmc.2021.116185

$$$$
2546598
Actelion Java MolfileCreator 1.0

 46 50  0  0  0  0  0  0  0  0999 V2000
    0.0000   -0.0000   -0.0000 S   0  0  0  0  0  0  0  0  0  0  0  0
   -0.7674    1.3106   -0.0000 O   0  0  0  0  0  0  0  0  0  0  0  0
    0.7438    1.3106   -0.0000 O   0  0  0  0  0  0  0  0  0  0  0  0
    1.2869   -0.7438   -0.0000 N   0  0  0  0  0  0  0  0  0  0  0  0
   -1.2988   -0.7438   -0.0000 C   0  0  0  0  0  0  0  0  0  0  0  0
    2.5739    0.0118   -0.0000 C   0  0  0  0  0  0  0  0  0  0  0  0
    1.2751   -2.2315   -0.0000 C   0  0  0  0  0  0  0  0  0  0  0  0
   -2.6093    0.0236   -0.0000 C   0  0  0  0  0  0  0  0  0  0  0  0
   -1.3106   -2.2315   -0.0000 C   0  0  0  0  0  0  0  0  0  0  0  0
    2.5621    1.5113   -0.0000 C   0  0  0  0  0  0  0  0  0  0  0  0
    3.8490   -0.7438   -0.0000 C   0  0  0  0  0  0  0  0  0  0  0  0
   -0.0236   -2.9635   -0.0000 C   0  0  0  0  0  0  0  0  0  0  0  0
   -2.2433   -1.4050   -0.0000 O   0  0  0  0  0  0  0  0  0  0  0  0
   -3.9199   -0.7202   -0.0000 C   0  0  0  0  0  0  0  0  0  0  0  0
   -2.6329   -2.8573   -0.0000 C   0  0  0  0  0  0  0  0  0  0  0  0
    3.8490    2.2669   -0.0000 C   0  0  0  0  0  0  0  0  0  0  0  0
    5.1360    0.0118   -0.0000 C   0  0  0  0  0  0  0  0  0  0  0  0
   -5.2304    0.0354   -0.0000 C   0  0  0  0  0  0  0  0  0  0  0  0
   -3.9317   -2.2079   -0.0000 C   0  0  0  0  0  0  0  0  0  0  0  0
    3.8372    3.7664   -0.0000 O   0  0  0  0  0  0  0  0  0  0  0  0
    5.1478    1.5349   -0.0000 C   0  0  0  0  0  0  0  0  0  0  0  0
   -5.2422    1.5467   -0.0000 C   0  0  0  0  0  0  0  0  0  0  0  0
   -6.5292   -0.7084   -0.0000 C   0  0  0  0  0  0  0  0  0  0  0  0
   -5.2422   -2.9399   -0.0000 C   0  0  0  0  0  0  0  0  0  0  0  0
    5.1124    4.5220   -0.0000 C   0  0  0  0  0  0  0  0  0  0  0  0
   -6.5528    2.3023   -0.0000 C   0  0  0  0  0  0  0  0  0  0  0  0
   -7.8397    0.0472   -0.0000 C   0  0  0  0  0  0  0  0  0  0  0  0
   -6.5528   -2.1843   -0.0000 C   0  0  0  0  0  0  0  0  0  0  0  0
   -5.2540   -4.4158   -0.0000 C   0  0  0  0  0  0  0  0  0  0  0  0
   -7.8634    1.5703   -0.0000 C   0  0  0  0  0  0  0  0  0  0  0  0
   -7.8634   -2.9163   -0.0000 C   0  0  0  0  0  0  0  0  0  0  0  0
   -6.5528   -5.1596   -0.0000 C   0  0  0  0  0  0  0  0  0  0  0  0
   -9.1739    2.3259   -0.0000 N   0  0  0  0  0  0  0  0  0  0  0  0
   -7.8752   -4.4039   -0.0000 C   0  0  0  0  0  0  0  0  0  0  0  0
  -10.4845    1.5821   -0.0000 C   0  0  0  0  0  0  0  0  0  0  0  0
   -9.1857   -5.1478   -0.0000 O   0  0  0  0  0  0  0  0  0  0  0  0
  -10.4845    0.0945   -0.0000 O   0  0  0  0  0  0  0  0  0  0  0  0
  -11.7950    2.3378   -0.0000 C   0  0  0  0  0  0  0  0  0  0  0  0
  -13.1056    1.5939   -0.0000 C   0  0  0  0  0  0  0  0  0  0  0  0
  -14.4161    2.3496   -0.0000 C   0  0  0  0  0  0  0  0  0  0  0  0
  -15.7267    1.6057   -0.0000 C   0  0  0  0  0  0  0  0  0  0  0  0
  -17.0373    2.3614   -0.0000 C   0  0  0  0  0  0  0  0  0  0  0  0
  -18.3478    1.6175   -0.0000 C   0  0  0  0  0  0  0  0  0  0  0  0
  -19.6584    2.3732   -0.0000 C   0  0  0  0  0  0  0  0  0  0  0  0
  -19.6820    3.8844   -0.0000 O   0  0  0  0  0  0  0  0  0  0  0  0
  -20.9571    1.6293   -0.0000 O   0  0  0  0  0  0  0  0  0  0  0  0
  1  2  2  0  0  0  0
  1  3  2  0  0  0  0
  1  4  1  0  0  0  0
  1  5  1  0  0  0  0
  4  6  1  0  0  0  0
  4  7  1  0  0  0  0
  5  8  1  0  0  0  0
  5  9  1  0  0  0  0
  6 10  2  0  0  0  0
  6 11  1  0  0  0  0
  7 12  1  0  0  0  0
  8 13  1  0  0  0  0
  8 14  1  0  0  0  0
  9 15  1  0  0  0  0
 10 16  1  0  0  0  0
 11 17  2  0  0  0  0
 14 18  1  0  0  0  0
 14 19  2  0  0  0  0
 16 20  1  0  0  0  0
 16 21  2  0  0  0  0
 18 22  2  0  0  0  0
 18 23  1  0  0  0  0
 19 24  1  0  0  0  0
 20 25  1  0  0  0  0
 22 26  1  0  0  0  0
 23 27  2  0  0  0  0
 24 28  2  0  0  0  0
 24 29  1  0  0  0  0
 26 30  2  0  0  0  0
 28 31  1  0  0  0  0
 29 32  2  0  0  0  0
 30 33  1  0  0  0  0
 31 34  2  0  0  0  0
 33 35  1  0  0  0  0
 34 36  1  0  0  0  0
 35 37  2  0  0  0  0
 35 38  1  0  0  0  0
 38 39  1  0  0  0  0
 39 40  1  0  0  0  0
 40 41  1  0  0  0  0
 41 42  1  0  0  0  0
 42 43  1  0  0  0  0
 43 44  1  0  0  0  0
 44 45  2  0  0  0  0
 44 46  1  0  0  0  0
 13 15  1  0  0  0  0
 15 19  1  0  0  0  0
 17 21  1  0  0  0  0
 27 30  1  0  0  0  0
 32 34  1  0  0  0  0
M  END
>  <MolRegNo>
2546598

>  <m>
=

>  <Value>
153.47

>  <Unit>
nM

>  <Type>
Ki

>  <pValue>
6.81

>  <Ligand Efficiency>
0.2

>  <Binding Efficiency>
10.5

>  <Surface Efficiency>
4.78

>  <Assay Index>
1467863

>  <Assay Category>


>  <Assay Organism>
Homo sapiens

>  <Target ID>
19

>  <Target Name>
Estrogen receptor alpha

>  <Target Organism>
Homo sapiens

>  <Target Description>
Target is a single protein chain

>  <Sequence Accession>
P03372

>  <Reference>


>  <Pubmed ID>
33965842

>  <DOI>
10.1016/j.bmc.2021.116185

$$$$
2556286
Actelion Java MolfileCreator 1.0

 45 49  0  0  0  0  0  0  0  0999 V2000
    0.0000   -0.0000   -0.0000 S   0  0  0  0  0  0  0  0  0  0  0  0
   -0.7677    1.3110   -0.0000 O   0  0  0  0  0  0  0  0  0  0  0  0
    0.7441    1.3110   -0.0000 O   0  0  0  0  0  0  0  0  0  0  0  0
    1.2874   -0.7441   -0.0000 N   0  0  0  0  0  0  0  0  0  0  0  0
   -1.2992   -0.7441   -0.0000 C   0  0  0  0  0  0  0  0  0  0  0  0
    2.5748    0.0118   -0.0000 C   0  0  0  0  0  0  0  0  0  0  0  0
    1.2756   -2.2323   -0.0000 C   0  0  0  0  0  0  0  0  0  0  0  0
   -2.6102    0.0236   -0.0000 C   0  0  0  0  0  0  0  0  0  0  0  0
   -1.3110   -2.2323   -0.0000 C   0  0  0  0  0  0  0  0  0  0  0  0
    3.8504   -0.7441   -0.0000 C   0  0  0  0  0  0  0  0  0  0  0  0
    2.5630    1.5118   -0.0000 C   0  0  0  0  0  0  0  0  0  0  0  0
   -0.0236   -2.9646   -0.0000 C   0  0  0  0  0  0  0  0  0  0  0  0
   -2.2441   -1.4055   -0.0000 O   0  0  0  0  0  0  0  0  0  0  0  0
   -3.9213   -0.7205   -0.0000 C   0  0  0  0  0  0  0  0  0  0  0  0
   -2.6339   -2.8583   -0.0000 C   0  0  0  0  0  0  0  0  0  0  0  0
    5.1378    0.0118   -0.0000 C   0  0  0  0  0  0  0  0  0  0  0  0
    3.8504    2.2677   -0.0000 C   0  0  0  0  0  0  0  0  0  0  0  0
   -5.2323    0.0354   -0.0000 C   0  0  0  0  0  0  0  0  0  0  0  0
   -3.9331   -2.2087   -0.0000 C   0  0  0  0  0  0  0  0  0  0  0  0
    5.1260    1.5236   -0.0000 C   0  0  0  0  0  0  0  0  0  0  0  0
   -5.2441    1.5472   -0.0000 C   0  0  0  0  0  0  0  0  0  0  0  0
   -6.5315   -0.7087   -0.0000 C   0  0  0  0  0  0  0  0  0  0  0  0
   -5.2441   -2.9409   -0.0000 C   0  0  0  0  0  0  0  0  0  0  0  0
    6.4016    2.2795   -0.0000 O   0  0  0  0  0  0  0  0  0  0  0  0
   -6.5551    2.3031   -0.0000 C   0  0  0  0  0  0  0  0  0  0  0  0
   -7.8425    0.0472   -0.0000 C   0  0  0  0  0  0  0  0  0  0  0  0
   -6.5551   -2.1850   -0.0000 C   0  0  0  0  0  0  0  0  0  0  0  0
   -5.2559   -4.4173   -0.0000 C   0  0  0  0  0  0  0  0  0  0  0  0
   -7.8661    1.5709   -0.0000 C   0  0  0  0  0  0  0  0  0  0  0  0
   -7.8661   -2.9173   -0.0000 C   0  0  0  0  0  0  0  0  0  0  0  0
   -6.5551   -5.1614   -0.0000 C   0  0  0  0  0  0  0  0  0  0  0  0
   -9.1771    2.3268   -0.0000 N   0  0  0  0  0  0  0  0  0  0  0  0
   -7.8779   -4.4055   -0.0000 C   0  0  0  0  0  0  0  0  0  0  0  0
  -10.4882    1.5827   -0.0000 C   0  0  0  0  0  0  0  0  0  0  0  0
   -9.1890   -5.1496   -0.0000 O   0  0  0  0  0  0  0  0  0  0  0  0
  -10.4882    0.0945   -0.0000 O   0  0  0  0  0  0  0  0  0  0  0  0
  -11.7992    2.3386   -0.0000 C   0  0  0  0  0  0  0  0  0  0  0  0
  -13.1102    1.5945   -0.0000 C   0  0  0  0  0  0  0  0  0  0  0  0
  -14.4212    2.3504   -0.0000 C   0  0  0  0  0  0  0  0  0  0  0  0
  -15.7323    1.6063   -0.0000 C   0  0  0  0  0  0  0  0  0  0  0  0
  -17.0433    2.3622   -0.0000 C   0  0  0  0  0  0  0  0  0  0  0  0
  -18.3543    1.6181   -0.0000 C   0  0  0  0  0  0  0  0  0  0  0  0
  -19.6653    2.3740   -0.0000 C   0  0  0  0  0  0  0  0  0  0  0  0
  -19.6889    3.8858   -0.0000 O   0  0  0  0  0  0  0  0  0  0  0  0
  -20.9645    1.6299   -0.0000 O   0  0  0  0  0  0  0  0  0  0  0  0
  1  2  2  0  0  0  0
  1  3  2  0  0  0  0
  1  4  1  0  0  0  0
  1  5  1  0  0  0  0
  4  6  1  0  0  0  0
  4  7  1  0  0  0  0
  5  8  1  0  0  0  0
  5  9  1  0  0  0  0
  6 10  2  0  0  0  0
  6 11  1  0  0  0  0
  7 12  1  0  0  0  0
  8 13  1  0  0  0  0
  8 14  1  0  0  0  0
  9 15  1  0  0  0  0
 10 16  1  0  0  0  0
 11 17  2  0  0  0  0
 14 18  1  0  0  0  0
 14 19  2  0  0  0  0
 16 20  2  0  0  0  0
 18 21  2  0  0  0  0
 18 22  1  0  0  0  0
 19 23  1  0  0  0  0
 20 24  1  0  0  0  0
 21 25  1  0  0  0  0
 22 26  2  0  0  0  0
 23 27  2  0  0  0  0
 23 28  1  0  0  0  0
 25 29  2  0  0  0  0
 27 30  1  0  0  0  0
 28 31  2  0  0  0  0
 29 32  1  0  0  0  0
 30 33  2  0  0  0  0
 32 34  1  0  0  0  0
 33 35  1  0  0  0  0
 34 36  2  0  0  0  0
 34 37  1  0  0  0  0
 37 38  1  0  0  0  0
 38 39  1  0  0  0  0
 39 40  1  0  0  0  0
 40 41  1  0  0  0  0
 41 42  1  0  0  0  0
 42 43  1  0  0  0  0
 43 44  2  0  0  0  0
 43 45  1  0  0  0  0
 13 15  1  0  0  0  0
 15 19  1  0  0  0  0
 17 20  1  0  0  0  0
 26 29  1  0  0  0  0
 31 33  1  0  0  0  0
M  END
>  <MolRegNo>
2556286

>  <m>
=

>  <Value>
246.03

>  <Unit>
nM

>  <Type>
Ki

>  <pValue>
6.61

>  <Ligand Efficiency>
0.2

>  <Binding Efficiency>
10.41

>  <Surface Efficiency>
4.31

>  <Assay Index>
1467863

>  <Assay Category>


>  <Assay Organism>
Homo sapiens

>  <Target ID>
19

>  <Target Name>
Estrogen receptor alpha

>  <Target Organism>
Homo sapiens

>  <Target Description>
Target is a single protein chain

>  <Sequence Accession>
P03372

>  <Reference>


>  <Pubmed ID>
33965842

>  <DOI>
10.1016/j.bmc.2021.116185

$$$$
2564064
Actelion Java MolfileCreator 1.0

 45 49  0  0  0  0  0  0  0  0999 V2000
    0.0000   -0.0000   -0.0000 Cl  0  0  0  0  0  0  0  0  0  0  0  0
    0.0000    1.4975   -0.0000 C   0  0  0  0  0  0  0  0  0  0  0  0
   -1.2970    2.2757   -0.0000 C   0  0  0  0  0  0  0  0  0  0  0  0
    1.2852    2.2521   -0.0000 C   0  0  0  0  0  0  0  0  0  0  0  0
   -2.6059    1.5447   -0.0000 N   0  0  0  0  0  0  0  0  0  0  0  0
   -1.3088    3.7732   -0.0000 C   0  0  0  0  0  0  0  0  0  0  0  0
    1.2735    3.7614   -0.0000 C   0  0  0  0  0  0  0  0  0  0  0  0
   -3.9147    2.3111   -0.0000 S   0  0  0  0  0  0  0  0  0  0  0  0
   -2.6177    0.0590   -0.0000 C   0  0  0  0  0  0  0  0  0  0  0  0
   -0.0236    4.5278   -0.0000 C   0  0  0  0  0  0  0  0  0  0  0  0
   -4.6811    3.6199   -0.0000 O   0  0  0  0  0  0  0  0  0  0  0  0
   -3.1719    3.6199   -0.0000 O   0  0  0  0  0  0  0  0  0  0  0  0
   -5.2117    1.5682   -0.0000 C   0  0  0  0  0  0  0  0  0  0  0  0
   -3.9147   -0.6721   -0.0000 C   0  0  0  0  0  0  0  0  0  0  0  0
   -6.5206    2.3347   -0.0000 C   0  0  0  0  0  0  0  0  0  0  0  0
   -5.2235    0.0825   -0.0000 C   0  0  0  0  0  0  0  0  0  0  0  0
   -6.1550    0.9079   -0.0000 O   0  0  0  0  0  0  0  0  0  0  0  0
   -7.8294    1.5918   -0.0000 C   0  0  0  0  0  0  0  0  0  0  0  0
   -6.5442   -0.5424   -0.0000 C   0  0  0  0  0  0  0  0  0  0  0  0
   -9.1382    2.3465   -0.0000 C   0  0  0  0  0  0  0  0  0  0  0  0
   -7.8412    0.1061   -0.0000 C   0  0  0  0  0  0  0  0  0  0  0  0
   -9.1500    3.8557   -0.0000 C   0  0  0  0  0  0  0  0  0  0  0  0
  -10.4353    1.6036   -0.0000 C   0  0  0  0  0  0  0  0  0  0  0  0
   -9.1500   -0.6249   -0.0000 C   0  0  0  0  0  0  0  0  0  0  0  0
  -10.4589    4.6104   -0.0000 C   0  0  0  0  0  0  0  0  0  0  0  0
  -11.7441    2.3583   -0.0000 C   0  0  0  0  0  0  0  0  0  0  0  0
  -10.4589    0.1297   -0.0000 C   0  0  0  0  0  0  0  0  0  0  0  0
   -9.1618   -2.0988   -0.0000 C   0  0  0  0  0  0  0  0  0  0  0  0
  -11.7677    3.8793   -0.0000 C   0  0  0  0  0  0  0  0  0  0  0  0
  -11.7677   -0.6014   -0.0000 C   0  0  0  0  0  0  0  0  0  0  0  0
  -10.4589   -2.8417   -0.0000 C   0  0  0  0  0  0  0  0  0  0  0  0
  -13.0765    4.6340   -0.0000 N   0  0  0  0  0  0  0  0  0  0  0  0
  -11.7795   -2.0871   -0.0000 C   0  0  0  0  0  0  0  0  0  0  0  0
  -14.3853    3.8911   -0.0000 C   0  0  0  0  0  0  0  0  0  0  0  0
  -13.0883   -2.8299   -0.0000 O   0  0  0  0  0  0  0  0  0  0  0  0
  -14.3853    2.4054   -0.0000 O   0  0  0  0  0  0  0  0  0  0  0  0
  -15.6942    4.6458   -0.0000 C   0  0  0  0  0  0  0  0  0  0  0  0
  -17.0030    3.9029   -0.0000 C   0  0  0  0  0  0  0  0  0  0  0  0
  -18.3118    4.6575   -0.0000 C   0  0  0  0  0  0  0  0  0  0  0  0
  -19.6207    3.9147   -0.0000 C   0  0  0  0  0  0  0  0  0  0  0  0
  -20.9295    4.6693   -0.0000 C   0  0  0  0  0  0  0  0  0  0  0  0
  -22.2383    3.9265   -0.0000 C   0  0  0  0  0  0  0  0  0  0  0  0
  -23.5472    4.6811   -0.0000 C   0  0  0  0  0  0  0  0  0  0  0  0
  -23.5707    6.1904   -0.0000 O   0  0  0  0  0  0  0  0  0  0  0  0
  -24.8442    3.9383   -0.0000 O   0  0  0  0  0  0  0  0  0  0  0  0
  1  2  1  0  0  0  0
  2  3  2  0  0  0  0
  2  4  1  0  0  0  0
  3  5  1  0  0  0  0
  3  6  1  0  0  0  0
  4  7  2  0  0  0  0
  5  8  1  0  0  0  0
  5  9  1  0  0  0  0
  6 10  2  0  0  0  0
  8 11  2  0  0  0  0
  8 12  2  0  0  0  0
  8 13  1  0  0  0  0
  9 14  1  0  0  0  0
 13 15  1  0  0  0  0
 13 16  1  0  0  0  0
 15 17  1  0  0  0  0
 15 18  1  0  0  0  0
 16 19  1  0  0  0  0
 18 20  1  0  0  0  0
 18 21  2  0  0  0  0
 20 22  2  0  0  0  0
 20 23  1  0  0  0  0
 21 24  1  0  0  0  0
 22 25  1  0  0  0  0
 23 26  2  0  0  0  0
 24 27  2  0  0  0  0
 24 28  1  0  0  0  0
 25 29  2  0  0  0  0
 27 30  1  0  0  0  0
 28 31  2  0  0  0  0
 29 32  1  0  0  0  0
 30 33  2  0  0  0  0
 32 34  1  0  0  0  0
 33 35  1  0  0  0  0
 34 36  2  0  0  0  0
 34 37  1  0  0  0  0
 37 38  1  0  0  0  0
 38 39  1  0  0  0  0
 39 40  1  0  0  0  0
 40 41  1  0  0  0  0
 41 42  1  0  0  0  0
 42 43  1  0  0  0  0
 43 44  2  0  0  0  0
 43 45  1  0  0  0  0
  7 10  1  0  0  0  0
 17 19  1  0  0  0  0
 19 21  1  0  0  0  0
 26 29  1  0  0  0  0
 31 33  1  0  0  0  0
M  END
>  <MolRegNo>
2564064

>  <m>
=

>  <Value>
720.93

>  <Unit>
nM

>  <Type>
Ki

>  <pValue>
6.14

>  <Ligand Efficiency>
0.19

>  <Binding Efficiency>
9.4

>  <Surface Efficiency>
4.61

>  <Assay Index>
1467863

>  <Assay Category>


>  <Assay Organism>
Homo sapiens

>  <Target ID>
19

>  <Target Name>
Estrogen receptor alpha

>  <Target Organism>
Homo sapiens

>  <Target Description>
Target is a single protein chain

>  <Sequence Accession>
P03372

>  <Reference>


>  <Pubmed ID>
33965842

>  <DOI>
10.1016/j.bmc.2021.116185

$$$$
2572022
Actelion Java MolfileCreator 1.0

 45 49  0  0  0  0  0  0  0  0999 V2000
    0.0000   -0.0000   -0.0000 Cl  0  0  0  0  0  0  0  0  0  0  0  0
   -1.2977   -0.7314   -0.0000 C   0  0  0  0  0  0  0  0  0  0  0  0
   -1.3095   -2.2178   -0.0000 C   0  0  0  0  0  0  0  0  0  0  0  0
   -2.6189    0.0236   -0.0000 C   0  0  0  0  0  0  0  0  0  0  0  0
   -2.6189   -2.9492   -0.0000 C   0  0  0  0  0  0  0  0  0  0  0  0
   -3.9284   -0.7078   -0.0000 C   0  0  0  0  0  0  0  0  0  0  0  0
   -3.9166   -2.1706   -0.0000 C   0  0  0  0  0  0  0  0  0  0  0  0
   -5.2261   -2.9021   -0.0000 N   0  0  0  0  0  0  0  0  0  0  0  0
   -6.5355   -2.1353   -0.0000 S   0  0  0  0  0  0  0  0  0  0  0  0
   -5.2379   -4.3885   -0.0000 C   0  0  0  0  0  0  0  0  0  0  0  0
   -7.3023   -0.8258   -0.0000 O   0  0  0  0  0  0  0  0  0  0  0  0
   -5.7923   -0.8258   -0.0000 O   0  0  0  0  0  0  0  0  0  0  0  0
   -7.8332   -2.8785   -0.0000 C   0  0  0  0  0  0  0  0  0  0  0  0
   -6.5355   -5.1199   -0.0000 C   0  0  0  0  0  0  0  0  0  0  0  0
   -9.1427   -2.1117   -0.0000 C   0  0  0  0  0  0  0  0  0  0  0  0
   -7.8450   -4.3649   -0.0000 C   0  0  0  0  0  0  0  0  0  0  0  0
   -8.7770   -3.5391   -0.0000 O   0  0  0  0  0  0  0  0  0  0  0  0
  -10.4521   -2.8549   -0.0000 C   0  0  0  0  0  0  0  0  0  0  0  0
   -9.1663   -4.9901   -0.0000 C   0  0  0  0  0  0  0  0  0  0  0  0
  -11.7616   -2.0999   -0.0000 C   0  0  0  0  0  0  0  0  0  0  0  0
  -10.4639   -4.3413   -0.0000 C   0  0  0  0  0  0  0  0  0  0  0  0
  -11.7734   -0.5898   -0.0000 C   0  0  0  0  0  0  0  0  0  0  0  0
  -13.0593   -2.8431   -0.0000 C   0  0  0  0  0  0  0  0  0  0  0  0
  -11.7734   -5.0727   -0.0000 C   0  0  0  0  0  0  0  0  0  0  0  0
  -13.0829    0.1652   -0.0000 C   0  0  0  0  0  0  0  0  0  0  0  0
  -14.3687   -2.0881   -0.0000 C   0  0  0  0  0  0  0  0  0  0  0  0
  -13.0829   -4.3177   -0.0000 C   0  0  0  0  0  0  0  0  0  0  0  0
  -11.7852   -6.5473   -0.0000 C   0  0  0  0  0  0  0  0  0  0  0  0
  -14.3923   -0.5663   -0.0000 C   0  0  0  0  0  0  0  0  0  0  0  0
  -14.3923   -5.0491   -0.0000 C   0  0  0  0  0  0  0  0  0  0  0  0
  -13.0829   -7.2905   -0.0000 C   0  0  0  0  0  0  0  0  0  0  0  0
  -15.7018    0.1888   -0.0000 N   0  0  0  0  0  0  0  0  0  0  0  0
  -14.4041   -6.5355   -0.0000 C   0  0  0  0  0  0  0  0  0  0  0  0
  -17.0112   -0.5545   -0.0000 C   0  0  0  0  0  0  0  0  0  0  0  0
  -15.7136   -7.2787   -0.0000 O   0  0  0  0  0  0  0  0  0  0  0  0
  -17.0112   -2.0409   -0.0000 O   0  0  0  0  0  0  0  0  0  0  0  0
  -18.3207    0.2005   -0.0000 C   0  0  0  0  0  0  0  0  0  0  0  0
  -19.6302   -0.5427   -0.0000 C   0  0  0  0  0  0  0  0  0  0  0  0
  -20.9396    0.2123   -0.0000 C   0  0  0  0  0  0  0  0  0  0  0  0
  -22.2491   -0.5309   -0.0000 C   0  0  0  0  0  0  0  0  0  0  0  0
  -23.5586    0.2241   -0.0000 C   0  0  0  0  0  0  0  0  0  0  0  0
  -24.8680   -0.5191   -0.0000 C   0  0  0  0  0  0  0  0  0  0  0  0
  -26.1775    0.2359   -0.0000 C   0  0  0  0  0  0  0  0  0  0  0  0
  -26.2011    1.7460   -0.0000 O   0  0  0  0  0  0  0  0  0  0  0  0
  -27.4752   -0.5073   -0.0000 O   0  0  0  0  0  0  0  0  0  0  0  0
  1  2  1  0  0  0  0
  2  3  2  0  0  0  0
  2  4  1  0  0  0  0
  3  5  1  0  0  0  0
  4  6  2  0  0  0  0
  5  7  2  0  0  0  0
  7  8  1  0  0  0  0
  8  9  1  0  0  0  0
  8 10  1  0  0  0  0
  9 11  2  0  0  0  0
  9 12  2  0  0  0  0
  9 13  1  0  0  0  0
 10 14  1  0  0  0  0
 13 15  1  0  0  0  0
 13 16  1  0  0  0  0
 15 17  1  0  0  0  0
 15 18  1  0  0  0  0
 16 19  1  0  0  0  0
 18 20  1  0  0  0  0
 18 21  2  0  0  0  0
 20 22  2  0  0  0  0
 20 23  1  0  0  0  0
 21 24  1  0  0  0  0
 22 25  1  0  0  0  0
 23 26  2  0  0  0  0
 24 27  2  0  0  0  0
 24 28  1  0  0  0  0
 25 29  2  0  0  0  0
 27 30  1  0  0  0  0
 28 31  2  0  0  0  0
 29 32  1  0  0  0  0
 30 33  2  0  0  0  0
 32 34  1  0  0  0  0
 33 35  1  0  0  0  0
 34 36  2  0  0  0  0
 34 37  1  0  0  0  0
 37 38  1  0  0  0  0
 38 39  1  0  0  0  0
 39 40  1  0  0  0  0
 40 41  1  0  0  0  0
 41 42  1  0  0  0  0
 42 43  1  0  0  0  0
 43 44  2  0  0  0  0
 43 45  1  0  0  0  0
  6  7  1  0  0  0  0
 17 19  1  0  0  0  0
 19 21  1  0  0  0  0
 26 29  1  0  0  0  0
 31 33  1  0  0  0  0
M  END
>  <MolRegNo>
2572022

>  <m>
=

>  <Value>
1291.7

>  <Unit>
nM

>  <Type>
Ki

>  <pValue>
5.89

>  <Ligand Efficiency>
0.18

>  <Binding Efficiency>
9.02

>  <Surface Efficiency>
4.42

>  <Assay Index>
1467863

>  <Assay Category>


>  <Assay Organism>
Homo sapiens

>  <Target ID>
19

>  <Target Name>
Estrogen receptor alpha

>  <Target Organism>
Homo sapiens

>  <Target Description>
Target is a single protein chain

>  <Sequence Accession>
P03372

>  <Reference>


>  <Pubmed ID>
33965842

>  <DOI>
10.1016/j.bmc.2021.116185

$$$$
2563722
Actelion Java MolfileCreator 1.0

 45 49  0  0  0  0  0  0  0  0999 V2000
    0.0000   -0.0000   -0.0000 Br  0  0  0  0  0  0  0  0  0  0  0  0
    0.0000    1.4975   -0.0000 C   0  0  0  0  0  0  0  0  0  0  0  0
   -1.2970    2.2757   -0.0000 C   0  0  0  0  0  0  0  0  0  0  0  0
    1.2852    2.2521   -0.0000 C   0  0  0  0  0  0  0  0  0  0  0  0
   -2.6059    1.5447   -0.0000 N   0  0  0  0  0  0  0  0  0  0  0  0
   -1.3088    3.7732   -0.0000 C   0  0  0  0  0  0  0  0  0  0  0  0
    1.2735    3.7614   -0.0000 C   0  0  0  0  0  0  0  0  0  0  0  0
   -3.9147    2.3111   -0.0000 S   0  0  0  0  0  0  0  0  0  0  0  0
   -2.6177    0.0590   -0.0000 C   0  0  0  0  0  0  0  0  0  0  0  0
   -0.0236    4.5278   -0.0000 C   0  0  0  0  0  0  0  0  0  0  0  0
   -4.6811    3.6199   -0.0000 O   0  0  0  0  0  0  0  0  0  0  0  0
   -3.1719    3.6199   -0.0000 O   0  0  0  0  0  0  0  0  0  0  0  0
   -5.2117    1.5682   -0.0000 C   0  0  0  0  0  0  0  0  0  0  0  0
   -3.9147   -0.6721   -0.0000 C   0  0  0  0  0  0  0  0  0  0  0  0
   -6.5206    2.3347   -0.0000 C   0  0  0  0  0  0  0  0  0  0  0  0
   -5.2235    0.0825   -0.0000 C   0  0  0  0  0  0  0  0  0  0  0  0
   -6.1550    0.9079   -0.0000 O   0  0  0  0  0  0  0  0  0  0  0  0
   -7.8294    1.5918   -0.0000 C   0  0  0  0  0  0  0  0  0  0  0  0
   -6.5442   -0.5424   -0.0000 C   0  0  0  0  0  0  0  0  0  0  0  0
   -9.1382    2.3465   -0.0000 C   0  0  0  0  0  0  0  0  0  0  0  0
   -7.8412    0.1061   -0.0000 C   0  0  0  0  0  0  0  0  0  0  0  0
   -9.1500    3.8557   -0.0000 C   0  0  0  0  0  0  0  0  0  0  0  0
  -10.4353    1.6036   -0.0000 C   0  0  0  0  0  0  0  0  0  0  0  0
   -9.1500   -0.6249   -0.0000 C   0  0  0  0  0  0  0  0  0  0  0  0
  -10.4589    4.6104   -0.0000 C   0  0  0  0  0  0  0  0  0  0  0  0
  -11.7441    2.3583   -0.0000 C   0  0  0  0  0  0  0  0  0  0  0  0
  -10.4589    0.1297   -0.0000 C   0  0  0  0  0  0  0  0  0  0  0  0
   -9.1618   -2.0988   -0.0000 C   0  0  0  0  0  0  0  0  0  0  0  0
  -11.7677    3.8793   -0.0000 C   0  0  0  0  0  0  0  0  0  0  0  0
  -11.7677   -0.6014   -0.0000 C   0  0  0  0  0  0  0  0  0  0  0  0
  -10.4589   -2.8417   -0.0000 C   0  0  0  0  0  0  0  0  0  0  0  0
  -13.0765    4.6340   -0.0000 N   0  0  0  0  0  0  0  0  0  0  0  0
  -11.7795   -2.0871   -0.0000 C   0  0  0  0  0  0  0  0  0  0  0  0
  -14.3853    3.8911   -0.0000 C   0  0  0  0  0  0  0  0  0  0  0  0
  -13.0883   -2.8299   -0.0000 O   0  0  0  0  0  0  0  0  0  0  0  0
  -14.3853    2.4054   -0.0000 O   0  0  0  0  0  0  0  0  0  0  0  0
  -15.6942    4.6458   -0.0000 C   0  0  0  0  0  0  0  0  0  0  0  0
  -17.0030    3.9029   -0.0000 C   0  0  0  0  0  0  0  0  0  0  0  0
  -18.3118    4.6575   -0.0000 C   0  0  0  0  0  0  0  0  0  0  0  0
  -19.6207    3.9147   -0.0000 C   0  0  0  0  0  0  0  0  0  0  0  0
  -20.9295    4.6693   -0.0000 C   0  0  0  0  0  0  0  0  0  0  0  0
  -22.2383    3.9265   -0.0000 C   0  0  0  0  0  0  0  0  0  0  0  0
  -23.5472    4.6811   -0.0000 C   0  0  0  0  0  0  0  0  0  0  0  0
  -23.5707    6.1904   -0.0000 O   0  0  0  0  0  0  0  0  0  0  0  0
  -24.8442    3.9383   -0.0000 O   0  0  0  0  0  0  0  0  0  0  0  0
  1  2  1  0  0  0  0
  2  3  2  0  0  0  0
  2  4  1  0  0  0  0
  3  5  1  0  0  0  0
  3  6  1  0  0  0  0
  4  7  2  0  0  0  0
  5  8  1  0  0  0  0
  5  9  1  0  0  0  0
  6 10  2  0  0  0  0
  8 11  2  0  0  0  0
  8 12  2  0  0  0  0
  8 13  1  0  0  0  0
  9 14  1  0  0  0  0
 13 15  1  0  0  0  0
 13 16  1  0  0  0  0
 15 17  1  0  0  0  0
 15 18  1  0  0  0  0
 16 19  1  0  0  0  0
 18 20  1  0  0  0  0
 18 21  2  0  0  0  0
 20 22  2  0  0  0  0
 20 23  1  0  0  0  0
 21 24  1  0  0  0  0
 22 25  1  0  0  0  0
 23 26  2  0  0  0  0
 24 27  2  0  0  0  0
 24 28  1  0  0  0  0
 25 29  2  0  0  0  0
 27 30  1  0  0  0  0
 28 31  2  0  0  0  0
 29 32  1  0  0  0  0
 30 33  2  0  0  0  0
 32 34  1  0  0  0  0
 33 35  1  0  0  0  0
 34 36  2  0  0  0  0
 34 37  1  0  0  0  0
 37 38  1  0  0  0  0
 38 39  1  0  0  0  0
 39 40  1  0  0  0  0
 40 41  1  0  0  0  0
 41 42  1  0  0  0  0
 42 43  1  0  0  0  0
 43 44  2  0  0  0  0
 43 45  1  0  0  0  0
  7 10  1  0  0  0  0
 17 19  1  0  0  0  0
 19 21  1  0  0  0  0
 26 29  1  0  0  0  0
 31 33  1  0  0  0  0
M  END
>  <MolRegNo>
2563722

>  <m>
=

>  <Value>
534.48

>  <Unit>
nM

>  <Type>
Ki

>  <pValue>
6.27

>  <Ligand Efficiency>
0.19

>  <Binding Efficiency>
8.99

>  <Surface Efficiency>
4.71

>  <Assay Index>
1467863

>  <Assay Category>


>  <Assay Organism>
Homo sapiens

>  <Target ID>
19

>  <Target Name>
Estrogen receptor alpha

>  <Target Organism>
Homo sapiens

>  <Target Description>
Target is a single protein chain

>  <Sequence Accession>
P03372

>  <Reference>


>  <Pubmed ID>
33965842

>  <DOI>
10.1016/j.bmc.2021.116185

$$$$
2568013
Actelion Java MolfileCreator 1.0

 47 51  0  0  0  0  0  0  0  0999 V2000
    0.0000   -0.0000   -0.0000 S   0  0  0  0  0  0  0  0  0  0  0  0
   -0.7681    1.3118   -0.0000 O   0  0  0  0  0  0  0  0  0  0  0  0
    0.7445    1.3118   -0.0000 O   0  0  0  0  0  0  0  0  0  0  0  0
    1.2881   -0.7445   -0.0000 N   0  0  0  0  0  0  0  0  0  0  0  0
   -1.2999   -0.7445   -0.0000 C   0  0  0  0  0  0  0  0  0  0  0  0
    2.5762    0.0118   -0.0000 C   0  0  0  0  0  0  0  0  0  0  0  0
    1.2763   -2.2335   -0.0000 C   0  0  0  0  0  0  0  0  0  0  0  0
   -2.6117    0.0236   -0.0000 C   0  0  0  0  0  0  0  0  0  0  0  0
   -1.3118   -2.2335   -0.0000 C   0  0  0  0  0  0  0  0  0  0  0  0
    3.8525   -0.7445   -0.0000 C   0  0  0  0  0  0  0  0  0  0  0  0
    2.5644    1.5126   -0.0000 C   0  0  0  0  0  0  0  0  0  0  0  0
    2.5526   -2.9662   -0.0000 C   0  0  0  0  0  0  0  0  0  0  0  0
   -2.2453   -1.4063   -0.0000 O   0  0  0  0  0  0  0  0  0  0  0  0
   -3.9234   -0.7209   -0.0000 C   0  0  0  0  0  0  0  0  0  0  0  0
   -2.6353   -2.8599   -0.0000 C   0  0  0  0  0  0  0  0  0  0  0  0
    5.1406    0.0118   -0.0000 C   0  0  0  0  0  0  0  0  0  0  0  0
    3.8525    2.2690   -0.0000 C   0  0  0  0  0  0  0  0  0  0  0  0
    3.2735   -1.6545   -0.0000 F   0  0  0  0  0  0  0  0  0  0  0  0
    4.0298   -2.9426   -0.0000 F   0  0  0  0  0  0  0  0  0  0  0  0
    2.5408   -4.4552   -0.0000 F   0  0  0  0  0  0  0  0  0  0  0  0
   -5.2352    0.0355   -0.0000 C   0  0  0  0  0  0  0  0  0  0  0  0
   -3.9353   -2.2099   -0.0000 C   0  0  0  0  0  0  0  0  0  0  0  0
    5.1288    1.5245   -0.0000 C   0  0  0  0  0  0  0  0  0  0  0  0
   -5.2470    1.5481   -0.0000 C   0  0  0  0  0  0  0  0  0  0  0  0
   -6.5351   -0.7091   -0.0000 C   0  0  0  0  0  0  0  0  0  0  0  0
   -5.2470   -2.9426   -0.0000 C   0  0  0  0  0  0  0  0  0  0  0  0
   -6.5588    2.3044   -0.0000 C   0  0  0  0  0  0  0  0  0  0  0  0
   -7.8469    0.0473   -0.0000 C   0  0  0  0  0  0  0  0  0  0  0  0
   -6.5588   -2.1863   -0.0000 C   0  0  0  0  0  0  0  0  0  0  0  0
   -5.2588   -4.4198   -0.0000 C   0  0  0  0  0  0  0  0  0  0  0  0
   -7.8705    1.5717   -0.0000 C   0  0  0  0  0  0  0  0  0  0  0  0
   -7.8705   -2.9189   -0.0000 C   0  0  0  0  0  0  0  0  0  0  0  0
   -6.5588   -5.1643   -0.0000 C   0  0  0  0  0  0  0  0  0  0  0  0
   -9.1823    2.3281   -0.0000 N   0  0  0  0  0  0  0  0  0  0  0  0
   -7.8823   -4.4080   -0.0000 C   0  0  0  0  0  0  0  0  0  0  0  0
  -10.4940    1.5836   -0.0000 C   0  0  0  0  0  0  0  0  0  0  0  0
   -9.1941   -5.1525   -0.0000 O   0  0  0  0  0  0  0  0  0  0  0  0
  -10.4940    0.0945   -0.0000 O   0  0  0  0  0  0  0  0  0  0  0  0
  -11.8058    2.3399   -0.0000 C   0  0  0  0  0  0  0  0  0  0  0  0
  -13.1175    1.5954   -0.0000 C   0  0  0  0  0  0  0  0  0  0  0  0
  -14.4293    2.3517   -0.0000 C   0  0  0  0  0  0  0  0  0  0  0  0
  -15.7410    1.6072   -0.0000 C   0  0  0  0  0  0  0  0  0  0  0  0
  -17.0528    2.3635   -0.0000 C   0  0  0  0  0  0  0  0  0  0  0  0
  -18.3645    1.6190   -0.0000 C   0  0  0  0  0  0  0  0  0  0  0  0
  -19.6763    2.3753   -0.0000 C   0  0  0  0  0  0  0  0  0  0  0  0
  -19.6999    3.8880   -0.0000 O   0  0  0  0  0  0  0  0  0  0  0  0
  -20.9762    1.6308   -0.0000 O   0  0  0  0  0  0  0  0  0  0  0  0
  1  2  2  0  0  0  0
  1  3  2  0  0  0  0
  1  4  1  0  0  0  0
  1  5  1  0  0  0  0
  4  6  1  0  0  0  0
  4  7  1  0  0  0  0
  5  8  1  0  0  0  0
  5  9  1  0  0  0  0
  6 10  2  0  0  0  0
  6 11  1  0  0  0  0
  7 12  1  0  0  0  0
  8 13  1  0  0  0  0
  8 14  1  0  0  0  0
  9 15  1  0  0  0  0
 10 16  1  0  0  0  0
 11 17  2  0  0  0  0
 12 18  1  0  0  0  0
 12 19  1  0  0  0  0
 12 20  1  0  0  0  0
 14 21  1  0  0  0  0
 14 22  2  0  0  0  0
 16 23  2  0  0  0  0
 21 24  2  0  0  0  0
 21 25  1  0  0  0  0
 22 26  1  0  0  0  0
 24 27  1  0  0  0  0
 25 28  2  0  0  0  0
 26 29  2  0  0  0  0
 26 30  1  0  0  0  0
 27 31  2  0  0  0  0
 29 32  1  0  0  0  0
 30 33  2  0  0  0  0
 31 34  1  0  0  0  0
 32 35  2  0  0  0  0
 34 36  1  0  0  0  0
 35 37  1  0  0  0  0
 36 38  2  0  0  0  0
 36 39  1  0  0  0  0
 39 40  1  0  0  0  0
 40 41  1  0  0  0  0
 41 42  1  0  0  0  0
 42 43  1  0  0  0  0
 43 44  1  0  0  0  0
 44 45  1  0  0  0  0
 45 46  2  0  0  0  0
 45 47  1  0  0  0  0
 13 15  1  0  0  0  0
 15 22  1  0  0  0  0
 17 23  1  0  0  0  0
 28 31  1  0  0  0  0
 33 35  1  0  0  0  0
M  END
>  <MolRegNo>
2568013

>  <m>
=

>  <Value>
1823.5

>  <Unit>
nM

>  <Type>
Ki

>  <pValue>
5.74

>  <Ligand Efficiency>
0.17

>  <Binding Efficiency>
8.53

>  <Surface Efficiency>
4.31

>  <Assay Index>
1467863

>  <Assay Category>


>  <Assay Organism>
Homo sapiens

>  <Target ID>
19

>  <Target Name>
Estrogen receptor alpha

>  <Target Organism>
Homo sapiens

>  <Target Description>
Target is a single protein chain

>  <Sequence Accession>
P03372

>  <Reference>


>  <Pubmed ID>
33965842

>  <DOI>
10.1016/j.bmc.2021.116185

$$$$
2569759
Actelion Java MolfileCreator 1.0

 48 52  0  0  0  0  0  0  0  0999 V2000
    0.0000   -0.0000   -0.0000 S   0  0  0  0  0  0  0  0  0  0  0  0
   -0.7683    1.3120   -0.0000 O   0  0  0  0  0  0  0  0  0  0  0  0
    0.7447    1.3120   -0.0000 O   0  0  0  0  0  0  0  0  0  0  0  0
    1.2884   -0.7447   -0.0000 N   0  0  0  0  0  0  0  0  0  0  0  0
   -1.3002   -0.7447   -0.0000 C   0  0  0  0  0  0  0  0  0  0  0  0
    2.5768    0.0118   -0.0000 C   0  0  0  0  0  0  0  0  0  0  0  0
    1.2766   -2.2340   -0.0000 C   0  0  0  0  0  0  0  0  0  0  0  0
   -2.6122    0.0236   -0.0000 C   0  0  0  0  0  0  0  0  0  0  0  0
   -1.3120   -2.2340   -0.0000 C   0  0  0  0  0  0  0  0  0  0  0  0
    3.8533   -0.7447   -0.0000 C   0  0  0  0  0  0  0  0  0  0  0  0
    2.5650    1.5130   -0.0000 C   0  0  0  0  0  0  0  0  0  0  0  0
    2.5531   -2.9668   -0.0000 C   0  0  0  0  0  0  0  0  0  0  0  0
   -2.2458   -1.4066   -0.0000 O   0  0  0  0  0  0  0  0  0  0  0  0
   -3.9243   -0.7210   -0.0000 C   0  0  0  0  0  0  0  0  0  0  0  0
   -2.6359   -2.8605   -0.0000 C   0  0  0  0  0  0  0  0  0  0  0  0
    5.1417    0.0118   -0.0000 C   0  0  0  0  0  0  0  0  0  0  0  0
    3.8533    2.2695   -0.0000 C   0  0  0  0  0  0  0  0  0  0  0  0
    3.2742   -1.6548   -0.0000 F   0  0  0  0  0  0  0  0  0  0  0  0
    4.0306   -2.9432   -0.0000 F   0  0  0  0  0  0  0  0  0  0  0  0
    2.5413   -4.4562   -0.0000 F   0  0  0  0  0  0  0  0  0  0  0  0
   -5.2363    0.0355   -0.0000 C   0  0  0  0  0  0  0  0  0  0  0  0
   -3.9361   -2.2104   -0.0000 C   0  0  0  0  0  0  0  0  0  0  0  0
    5.1299    1.5248   -0.0000 C   0  0  0  0  0  0  0  0  0  0  0  0
   -5.2481    1.5484   -0.0000 C   0  0  0  0  0  0  0  0  0  0  0  0
   -6.5365   -0.7092   -0.0000 C   0  0  0  0  0  0  0  0  0  0  0  0
   -5.2481   -2.9432   -0.0000 C   0  0  0  0  0  0  0  0  0  0  0  0
    6.4065    2.2813   -0.0000 C   0  0  0  0  0  0  0  0  0  0  0  0
   -6.5601    2.3049   -0.0000 C   0  0  0  0  0  0  0  0  0  0  0  0
   -7.8485    0.0473   -0.0000 C   0  0  0  0  0  0  0  0  0  0  0  0
   -6.5601   -2.1867   -0.0000 C   0  0  0  0  0  0  0  0  0  0  0  0
   -5.2599   -4.4207   -0.0000 C   0  0  0  0  0  0  0  0  0  0  0  0
   -7.8722    1.5721   -0.0000 C   0  0  0  0  0  0  0  0  0  0  0  0
   -7.8722   -2.9196   -0.0000 C   0  0  0  0  0  0  0  0  0  0  0  0
   -6.5601   -5.1654   -0.0000 C   0  0  0  0  0  0  0  0  0  0  0  0
   -9.1842    2.3286   -0.0000 N   0  0  0  0  0  0  0  0  0  0  0  0
   -7.8840   -4.4089   -0.0000 C   0  0  0  0  0  0  0  0  0  0  0  0
  -10.4962    1.5839   -0.0000 C   0  0  0  0  0  0  0  0  0  0  0  0
   -9.1960   -5.1535   -0.0000 O   0  0  0  0  0  0  0  0  0  0  0  0
  -10.4962    0.0946   -0.0000 O   0  0  0  0  0  0  0  0  0  0  0  0
  -11.8082    2.3404   -0.0000 C   0  0  0  0  0  0  0  0  0  0  0  0
  -13.1203    1.5957   -0.0000 C   0  0  0  0  0  0  0  0  0  0  0  0
  -14.4323    2.3522   -0.0000 C   0  0  0  0  0  0  0  0  0  0  0  0
  -15.7443    1.6075   -0.0000 C   0  0  0  0  0  0  0  0  0  0  0  0
  -17.0563    2.3640   -0.0000 C   0  0  0  0  0  0  0  0  0  0  0  0
  -18.3684    1.6193   -0.0000 C   0  0  0  0  0  0  0  0  0  0  0  0
  -19.6804    2.3758   -0.0000 C   0  0  0  0  0  0  0  0  0  0  0  0
  -19.7040    3.8888   -0.0000 O   0  0  0  0  0  0  0  0  0  0  0  0
  -20.9806    1.6312   -0.0000 O   0  0  0  0  0  0  0  0  0  0  0  0
  1  2  2  0  0  0  0
  1  3  2  0  0  0  0
  1  4  1  0  0  0  0
  1  5  1  0  0  0  0
  4  6  1  0  0  0  0
  4  7  1  0  0  0  0
  5  8  1  0  0  0  0
  5  9  1  0  0  0  0
  6 10  2  0  0  0  0
  6 11  1  0  0  0  0
  7 12  1  0  0  0  0
  8 13  1  0  0  0  0
  8 14  1  0  0  0  0
  9 15  1  0  0  0  0
 10 16  1  0  0  0  0
 11 17  2  0  0  0  0
 12 18  1  0  0  0  0
 12 19  1  0  0  0  0
 12 20  1  0  0  0  0
 14 21  1  0  0  0  0
 14 22  2  0  0  0  0
 16 23  2  0  0  0  0
 21 24  2  0  0  0  0
 21 25  1  0  0  0  0
 22 26  1  0  0  0  0
 23 27  1  0  0  0  0
 24 28  1  0  0  0  0
 25 29  2  0  0  0  0
 26 30  2  0  0  0  0
 26 31  1  0  0  0  0
 28 32  2  0  0  0  0
 30 33  1  0  0  0  0
 31 34  2  0  0  0  0
 32 35  1  0  0  0  0
 33 36  2  0  0  0  0
 35 37  1  0  0  0  0
 36 38  1  0  0  0  0
 37 39  2  0  0  0  0
 37 40  1  0  0  0  0
 40 41  1  0  0  0  0
 41 42  1  0  0  0  0
 42 43  1  0  0  0  0
 43 44  1  0  0  0  0
 44 45  1  0  0  0  0
 45 46  1  0  0  0  0
 46 47  2  0  0  0  0
 46 48  1  0  0  0  0
 13 15  1  0  0  0  0
 15 22  1  0  0  0  0
 17 23  1  0  0  0  0
 29 32  1  0  0  0  0
 34 36  1  0  0  0  0
M  END
>  <MolRegNo>
2569759

>  <m>
=

>  <Value>
968.75

>  <Unit>
nM

>  <Type>
Ki

>  <pValue>
6.01

>  <Ligand Efficiency>
0.17

>  <Binding Efficiency>
8.76

>  <Surface Efficiency>
4.51

>  <Assay Index>
1467863

>  <Assay Category>


>  <Assay Organism>
Homo sapiens

>  <Target ID>
19

>  <Target Name>
Estrogen receptor alpha

>  <Target Organism>
Homo sapiens

>  <Target Description>
Target is a single protein chain

>  <Sequence Accession>
P03372

>  <Reference>


>  <Pubmed ID>
33965842

>  <DOI>
10.1016/j.bmc.2021.116185

$$$$
2552979
Actelion Java MolfileCreator 1.0

 48 52  0  0  0  0  0  0  0  0999 V2000
    0.0000   -0.0000   -0.0000 S   0  0  0  0  0  0  0  0  0  0  0  0
   -0.7680    1.3115   -0.0000 O   0  0  0  0  0  0  0  0  0  0  0  0
    0.7443    1.3115   -0.0000 O   0  0  0  0  0  0  0  0  0  0  0  0
    1.2878   -0.7443   -0.0000 N   0  0  0  0  0  0  0  0  0  0  0  0
   -1.2996   -0.7443   -0.0000 C   0  0  0  0  0  0  0  0  0  0  0  0
    2.5757    0.0118   -0.0000 C   0  0  0  0  0  0  0  0  0  0  0  0
    1.2760   -2.2330   -0.0000 C   0  0  0  0  0  0  0  0  0  0  0  0
   -2.6111    0.0236   -0.0000 C   0  0  0  0  0  0  0  0  0  0  0  0
   -1.3115   -2.2330   -0.0000 C   0  0  0  0  0  0  0  0  0  0  0  0
    2.5639    1.5123   -0.0000 C   0  0  0  0  0  0  0  0  0  0  0  0
    3.8517   -0.7443   -0.0000 C   0  0  0  0  0  0  0  0  0  0  0  0
    2.5520   -2.9656   -0.0000 C   0  0  0  0  0  0  0  0  0  0  0  0
   -2.2448   -1.4060   -0.0000 O   0  0  0  0  0  0  0  0  0  0  0  0
   -3.9226   -0.7207   -0.0000 C   0  0  0  0  0  0  0  0  0  0  0  0
   -2.6347   -2.8592   -0.0000 C   0  0  0  0  0  0  0  0  0  0  0  0
    3.8517    2.2685   -0.0000 C   0  0  0  0  0  0  0  0  0  0  0  0
    5.1395    0.0118   -0.0000 C   0  0  0  0  0  0  0  0  0  0  0  0
    3.2728   -1.6541   -0.0000 F   0  0  0  0  0  0  0  0  0  0  0  0
    4.0289   -2.9419   -0.0000 F   0  0  0  0  0  0  0  0  0  0  0  0
    2.5402   -4.4543   -0.0000 F   0  0  0  0  0  0  0  0  0  0  0  0
   -5.2340    0.0354   -0.0000 C   0  0  0  0  0  0  0  0  0  0  0  0
   -3.9344   -2.2094   -0.0000 C   0  0  0  0  0  0  0  0  0  0  0  0
    5.1395    1.5359   -0.0000 C   0  0  0  0  0  0  0  0  0  0  0  0
    3.8399    3.7690   -0.0000 C   0  0  0  0  0  0  0  0  0  0  0  0
   -5.2459    1.5478   -0.0000 C   0  0  0  0  0  0  0  0  0  0  0  0
   -6.5337   -0.7089   -0.0000 C   0  0  0  0  0  0  0  0  0  0  0  0
   -5.2459   -2.9419   -0.0000 C   0  0  0  0  0  0  0  0  0  0  0  0
   -6.5573    2.3039   -0.0000 C   0  0  0  0  0  0  0  0  0  0  0  0
   -7.8452    0.0473   -0.0000 C   0  0  0  0  0  0  0  0  0  0  0  0
   -6.5573   -2.1858   -0.0000 C   0  0  0  0  0  0  0  0  0  0  0  0
   -5.2577   -4.4188   -0.0000 C   0  0  0  0  0  0  0  0  0  0  0  0
   -7.8688    1.5714   -0.0000 C   0  0  0  0  0  0  0  0  0  0  0  0
   -7.8688   -2.9183   -0.0000 C   0  0  0  0  0  0  0  0  0  0  0  0
   -6.5573   -5.1632   -0.0000 C   0  0  0  0  0  0  0  0  0  0  0  0
   -9.1803    2.3276   -0.0000 N   0  0  0  0  0  0  0  0  0  0  0  0
   -7.8806   -4.4070   -0.0000 C   0  0  0  0  0  0  0  0  0  0  0  0
  -10.4917    1.5832   -0.0000 C   0  0  0  0  0  0  0  0  0  0  0  0
   -9.1921   -5.1513   -0.0000 O   0  0  0  0  0  0  0  0  0  0  0  0
  -10.4917    0.0945   -0.0000 O   0  0  0  0  0  0  0  0  0  0  0  0
  -11.8032    2.3394   -0.0000 C   0  0  0  0  0  0  0  0  0  0  0  0
  -13.1146    1.5950   -0.0000 C   0  0  0  0  0  0  0  0  0  0  0  0
  -14.4261    2.3512   -0.0000 C   0  0  0  0  0  0  0  0  0  0  0  0
  -15.7376    1.6068   -0.0000 C   0  0  0  0  0  0  0  0  0  0  0  0
  -17.0490    2.3630   -0.0000 C   0  0  0  0  0  0  0  0  0  0  0  0
  -18.3605    1.6187   -0.0000 C   0  0  0  0  0  0  0  0  0  0  0  0
  -19.6720    2.3748   -0.0000 C   0  0  0  0  0  0  0  0  0  0  0  0
  -19.6956    3.8871   -0.0000 O   0  0  0  0  0  0  0  0  0  0  0  0
  -20.9716    1.6305   -0.0000 O   0  0  0  0  0  0  0  0  0  0  0  0
  1  2  2  0  0  0  0
  1  3  2  0  0  0  0
  1  4  1  0  0  0  0
  1  5  1  0  0  0  0
  4  6  1  0  0  0  0
  4  7  1  0  0  0  0
  5  8  1  0  0  0  0
  5  9  1  0  0  0  0
  6 10  2  0  0  0  0
  6 11  1  0  0  0  0
  7 12  1  0  0  0  0
  8 13  1  0  0  0  0
  8 14  1  0  0  0  0
  9 15  1  0  0  0  0
 10 16  1  0  0  0  0
 11 17  2  0  0  0  0
 12 18  1  0  0  0  0
 12 19  1  0  0  0  0
 12 20  1  0  0  0  0
 14 21  1  0  0  0  0
 14 22  2  0  0  0  0
 16 23  2  0  0  0  0
 16 24  1  0  0  0  0
 21 25  2  0  0  0  0
 21 26  1  0  0  0  0
 22 27  1  0  0  0  0
 25 28  1  0  0  0  0
 26 29  2  0  0  0  0
 27 30  2  0  0  0  0
 27 31  1  0  0  0  0
 28 32  2  0  0  0  0
 30 33  1  0  0  0  0
 31 34  2  0  0  0  0
 32 35  1  0  0  0  0
 33 36  2  0  0  0  0
 35 37  1  0  0  0  0
 36 38  1  0  0  0  0
 37 39  2  0  0  0  0
 37 40  1  0  0  0  0
 40 41  1  0  0  0  0
 41 42  1  0  0  0  0
 42 43  1  0  0  0  0
 43 44  1  0  0  0  0
 44 45  1  0  0  0  0
 45 46  1  0  0  0  0
 46 47  2  0  0  0  0
 46 48  1  0  0  0  0
 13 15  1  0  0  0  0
 15 22  1  0  0  0  0
 17 23  1  0  0  0  0
 29 32  1  0  0  0  0
 34 36  1  0  0  0  0
M  END
>  <MolRegNo>
2552979

>  <m>
=

>  <Value>
659.57

>  <Unit>
nM

>  <Type>
Ki

>  <pValue>
6.18

>  <Ligand Efficiency>
0.18

>  <Binding Efficiency>
9

>  <Surface Efficiency>
4.64

>  <Assay Index>
1467863

>  <Assay Category>


>  <Assay Organism>
Homo sapiens

>  <Target ID>
19

>  <Target Name>
Estrogen receptor alpha

>  <Target Organism>
Homo sapiens

>  <Target Description>
Target is a single protein chain

>  <Sequence Accession>
P03372

>  <Reference>


>  <Pubmed ID>
33965842

>  <DOI>
10.1016/j.bmc.2021.116185

$$$$
2549516
Actelion Java MolfileCreator 1.0

 49 53  0  0  0  0  0  0  0  0999 V2000
    0.0000   -0.0000   -0.0000 S   0  0  0  0  0  0  0  0  0  0  0  0
   -0.7686    1.3125   -0.0000 O   0  0  0  0  0  0  0  0  0  0  0  0
    0.7449    1.3125   -0.0000 O   0  0  0  0  0  0  0  0  0  0  0  0
    1.2888   -0.7449   -0.0000 N   0  0  0  0  0  0  0  0  0  0  0  0
   -1.3007   -0.7449   -0.0000 C   0  0  0  0  0  0  0  0  0  0  0  0
    2.5777    0.0118   -0.0000 C   0  0  0  0  0  0  0  0  0  0  0  0
    1.2770   -2.2348   -0.0000 C   0  0  0  0  0  0  0  0  0  0  0  0
   -2.6132    0.0236   -0.0000 C   0  0  0  0  0  0  0  0  0  0  0  0
   -1.3125   -2.2348   -0.0000 C   0  0  0  0  0  0  0  0  0  0  0  0
    3.8547   -0.7449   -0.0000 C   0  0  0  0  0  0  0  0  0  0  0  0
    2.5659    1.5135   -0.0000 C   0  0  0  0  0  0  0  0  0  0  0  0
    2.5540   -2.9679   -0.0000 C   0  0  0  0  0  0  0  0  0  0  0  0
   -2.2466   -1.4071   -0.0000 O   0  0  0  0  0  0  0  0  0  0  0  0
   -3.9256   -0.7213   -0.0000 C   0  0  0  0  0  0  0  0  0  0  0  0
   -2.6368   -2.8615   -0.0000 C   0  0  0  0  0  0  0  0  0  0  0  0
    5.1435    0.0118   -0.0000 C   0  0  0  0  0  0  0  0  0  0  0  0
    3.8547    2.2703   -0.0000 C   0  0  0  0  0  0  0  0  0  0  0  0
    3.2753   -1.6554   -0.0000 F   0  0  0  0  0  0  0  0  0  0  0  0
    4.0321   -2.9442   -0.0000 F   0  0  0  0  0  0  0  0  0  0  0  0
    2.5422   -4.4577   -0.0000 F   0  0  0  0  0  0  0  0  0  0  0  0
   -5.2381    0.0355   -0.0000 C   0  0  0  0  0  0  0  0  0  0  0  0
   -3.9375   -2.2111   -0.0000 C   0  0  0  0  0  0  0  0  0  0  0  0
    5.1317    1.5253   -0.0000 C   0  0  0  0  0  0  0  0  0  0  0  0
   -5.2500    1.5490   -0.0000 C   0  0  0  0  0  0  0  0  0  0  0  0
   -6.5388   -0.7095   -0.0000 C   0  0  0  0  0  0  0  0  0  0  0  0
   -5.2500   -2.9442   -0.0000 C   0  0  0  0  0  0  0  0  0  0  0  0
    6.4087    2.2821   -0.0000 O   0  0  0  0  0  0  0  0  0  0  0  0
   -6.5624    2.3057   -0.0000 C   0  0  0  0  0  0  0  0  0  0  0  0
   -7.8513    0.0473   -0.0000 C   0  0  0  0  0  0  0  0  0  0  0  0
   -6.5624   -2.1875   -0.0000 C   0  0  0  0  0  0  0  0  0  0  0  0
   -5.2618   -4.4223   -0.0000 C   0  0  0  0  0  0  0  0  0  0  0  0
    7.6858    1.5490   -0.0000 C   0  0  0  0  0  0  0  0  0  0  0  0
   -7.8749    1.5726   -0.0000 C   0  0  0  0  0  0  0  0  0  0  0  0
   -7.8749   -2.9206   -0.0000 C   0  0  0  0  0  0  0  0  0  0  0  0
   -6.5624   -5.1672   -0.0000 C   0  0  0  0  0  0  0  0  0  0  0  0
   -9.1874    2.3294   -0.0000 N   0  0  0  0  0  0  0  0  0  0  0  0
   -7.8868   -4.4104   -0.0000 C   0  0  0  0  0  0  0  0  0  0  0  0
  -10.4999    1.5844   -0.0000 C   0  0  0  0  0  0  0  0  0  0  0  0
   -9.1993   -5.1554   -0.0000 O   0  0  0  0  0  0  0  0  0  0  0  0
  -10.4999    0.0946   -0.0000 O   0  0  0  0  0  0  0  0  0  0  0  0
  -11.8124    2.3412   -0.0000 C   0  0  0  0  0  0  0  0  0  0  0  0
  -13.1249    1.5963   -0.0000 C   0  0  0  0  0  0  0  0  0  0  0  0
  -14.4374    2.3530   -0.0000 C   0  0  0  0  0  0  0  0  0  0  0  0
  -15.7499    1.6081   -0.0000 C   0  0  0  0  0  0  0  0  0  0  0  0
  -17.0624    2.3648   -0.0000 C   0  0  0  0  0  0  0  0  0  0  0  0
  -18.3749    1.6199   -0.0000 C   0  0  0  0  0  0  0  0  0  0  0  0
  -19.6873    2.3767   -0.0000 C   0  0  0  0  0  0  0  0  0  0  0  0
  -19.7110    3.8902   -0.0000 O   0  0  0  0  0  0  0  0  0  0  0  0
  -20.9880    1.6317   -0.0000 O   0  0  0  0  0  0  0  0  0  0  0  0
  1  2  2  0  0  0  0
  1  3  2  0  0  0  0
  1  4  1  0  0  0  0
  1  5  1  0  0  0  0
  4  6  1  0  0  0  0
  4  7  1  0  0  0  0
  5  8  1  0  0  0  0
  5  9  1  0  0  0  0
  6 10  2  0  0  0  0
  6 11  1  0  0  0  0
  7 12  1  0  0  0  0
  8 13  1  0  0  0  0
  8 14  1  0  0  0  0
  9 15  1  0  0  0  0
 10 16  1  0  0  0  0
 11 17  2  0  0  0  0
 12 18  1  0  0  0  0
 12 19  1  0  0  0  0
 12 20  1  0  0  0  0
 14 21  1  0  0  0  0
 14 22  2  0  0  0  0
 16 23  2  0  0  0  0
 21 24  2  0  0  0  0
 21 25  1  0  0  0  0
 22 26  1  0  0  0  0
 23 27  1  0  0  0  0
 24 28  1  0  0  0  0
 25 29  2  0  0  0  0
 26 30  2  0  0  0  0
 26 31  1  0  0  0  0
 27 32  1  0  0  0  0
 28 33  2  0  0  0  0
 30 34  1  0  0  0  0
 31 35  2  0  0  0  0
 33 36  1  0  0  0  0
 34 37  2  0  0  0  0
 36 38  1  0  0  0  0
 37 39  1  0  0  0  0
 38 40  2  0  0  0  0
 38 41  1  0  0  0  0
 41 42  1  0  0  0  0
 42 43  1  0  0  0  0
 43 44  1  0  0  0  0
 44 45  1  0  0  0  0
 45 46  1  0  0  0  0
 46 47  1  0  0  0  0
 47 48  2  0  0  0  0
 47 49  1  0  0  0  0
 13 15  1  0  0  0  0
 15 22  1  0  0  0  0
 17 23  1  0  0  0  0
 29 33  1  0  0  0  0
 35 37  1  0  0  0  0
M  END
>  <MolRegNo>
2549516

>  <m>
=

>  <Value>
1550

>  <Unit>
nM

>  <Type>
Ki

>  <pValue>
5.81

>  <Ligand Efficiency>
0.16

>  <Binding Efficiency>
8.27

>  <Surface Efficiency>
4.08

>  <Assay Index>
1467863

>  <Assay Category>


>  <Assay Organism>
Homo sapiens

>  <Target ID>
19

>  <Target Name>
Estrogen receptor alpha

>  <Target Organism>
Homo sapiens

>  <Target Description>
Target is a single protein chain

>  <Sequence Accession>
P03372

>  <Reference>


>  <Pubmed ID>
33965842

>  <DOI>
10.1016/j.bmc.2021.116185

$$$$
2563333
Actelion Java MolfileCreator 1.0

 49 53  0  0  0  0  0  0  0  0999 V2000
    0.0000   -0.0000   -0.0000 S   0  0  0  0  0  0  0  0  0  0  0  0
   -0.7680    1.3116   -0.0000 O   0  0  0  0  0  0  0  0  0  0  0  0
    0.7444    1.3116   -0.0000 O   0  0  0  0  0  0  0  0  0  0  0  0
    1.2879   -0.7444   -0.0000 N   0  0  0  0  0  0  0  0  0  0  0  0
   -1.2998   -0.7444   -0.0000 C   0  0  0  0  0  0  0  0  0  0  0  0
    2.5759    0.0118   -0.0000 C   0  0  0  0  0  0  0  0  0  0  0  0
    1.2761   -2.2332   -0.0000 C   0  0  0  0  0  0  0  0  0  0  0  0
   -2.6113    0.0236   -0.0000 C   0  0  0  0  0  0  0  0  0  0  0  0
   -1.3116   -2.2332   -0.0000 C   0  0  0  0  0  0  0  0  0  0  0  0
    2.5641    1.5124   -0.0000 C   0  0  0  0  0  0  0  0  0  0  0  0
    3.8520   -0.7444   -0.0000 C   0  0  0  0  0  0  0  0  0  0  0  0
    2.5522   -2.9658   -0.0000 C   0  0  0  0  0  0  0  0  0  0  0  0
   -2.2450   -1.4061   -0.0000 O   0  0  0  0  0  0  0  0  0  0  0  0
   -3.9229   -0.7208   -0.0000 C   0  0  0  0  0  0  0  0  0  0  0  0
   -2.6350   -2.8595   -0.0000 C   0  0  0  0  0  0  0  0  0  0  0  0
    3.8520    2.2687   -0.0000 C   0  0  0  0  0  0  0  0  0  0  0  0
    5.1399    0.0118   -0.0000 C   0  0  0  0  0  0  0  0  0  0  0  0
    3.2730   -1.6542   -0.0000 F   0  0  0  0  0  0  0  0  0  0  0  0
    4.0292   -2.9422   -0.0000 F   0  0  0  0  0  0  0  0  0  0  0  0
    2.5404   -4.4546   -0.0000 F   0  0  0  0  0  0  0  0  0  0  0  0
   -5.2345    0.0354   -0.0000 C   0  0  0  0  0  0  0  0  0  0  0  0
   -3.9347   -2.2096   -0.0000 C   0  0  0  0  0  0  0  0  0  0  0  0
    3.8402    3.7693   -0.0000 O   0  0  0  0  0  0  0  0  0  0  0  0
    5.1518    1.5361   -0.0000 C   0  0  0  0  0  0  0  0  0  0  0  0
   -5.2463    1.5479   -0.0000 C   0  0  0  0  0  0  0  0  0  0  0  0
   -6.5342   -0.7090   -0.0000 C   0  0  0  0  0  0  0  0  0  0  0  0
   -5.2463   -2.9422   -0.0000 C   0  0  0  0  0  0  0  0  0  0  0  0
    5.1163    4.5255   -0.0000 C   0  0  0  0  0  0  0  0  0  0  0  0
   -6.5579    2.3041   -0.0000 C   0  0  0  0  0  0  0  0  0  0  0  0
   -7.8458    0.0473   -0.0000 C   0  0  0  0  0  0  0  0  0  0  0  0
   -6.5579   -2.1860   -0.0000 C   0  0  0  0  0  0  0  0  0  0  0  0
   -5.2581   -4.4192   -0.0000 C   0  0  0  0  0  0  0  0  0  0  0  0
   -7.8694    1.5715   -0.0000 C   0  0  0  0  0  0  0  0  0  0  0  0
   -7.8694   -2.9185   -0.0000 C   0  0  0  0  0  0  0  0  0  0  0  0
   -6.5579   -5.1636   -0.0000 C   0  0  0  0  0  0  0  0  0  0  0  0
   -9.1810    2.3277   -0.0000 N   0  0  0  0  0  0  0  0  0  0  0  0
   -7.8812   -4.4074   -0.0000 C   0  0  0  0  0  0  0  0  0  0  0  0
  -10.4926    1.5833   -0.0000 C   0  0  0  0  0  0  0  0  0  0  0  0
   -9.1928   -5.1518   -0.0000 O   0  0  0  0  0  0  0  0  0  0  0  0
  -10.4926    0.0945   -0.0000 O   0  0  0  0  0  0  0  0  0  0  0  0
  -11.8041    2.3396   -0.0000 C   0  0  0  0  0  0  0  0  0  0  0  0
  -13.1157    1.5952   -0.0000 C   0  0  0  0  0  0  0  0  0  0  0  0
  -14.4273    2.3514   -0.0000 C   0  0  0  0  0  0  0  0  0  0  0  0
  -15.7389    1.6070   -0.0000 C   0  0  0  0  0  0  0  0  0  0  0  0
  -17.0504    2.3632   -0.0000 C   0  0  0  0  0  0  0  0  0  0  0  0
  -18.3620    1.6188   -0.0000 C   0  0  0  0  0  0  0  0  0  0  0  0
  -19.6736    2.3750   -0.0000 C   0  0  0  0  0  0  0  0  0  0  0  0
  -19.6972    3.8874   -0.0000 O   0  0  0  0  0  0  0  0  0  0  0  0
  -20.9733    1.6306   -0.0000 O   0  0  0  0  0  0  0  0  0  0  0  0
  1  2  2  0  0  0  0
  1  3  2  0  0  0  0
  1  4  1  0  0  0  0
  1  5  1  0  0  0  0
  4  6  1  0  0  0  0
  4  7  1  0  0  0  0
  5  8  1  0  0  0  0
  5  9  1  0  0  0  0
  6 10  2  0  0  0  0
  6 11  1  0  0  0  0
  7 12  1  0  0  0  0
  8 13  1  0  0  0  0
  8 14  1  0  0  0  0
  9 15  1  0  0  0  0
 10 16  1  0  0  0  0
 11 17  2  0  0  0  0
 12 18  1  0  0  0  0
 12 19  1  0  0  0  0
 12 20  1  0  0  0  0
 14 21  1  0  0  0  0
 14 22  2  0  0  0  0
 16 23  1  0  0  0  0
 16 24  2  0  0  0  0
 21 25  2  0  0  0  0
 21 26  1  0  0  0  0
 22 27  1  0  0  0  0
 23 28  1  0  0  0  0
 25 29  1  0  0  0  0
 26 30  2  0  0  0  0
 27 31  2  0  0  0  0
 27 32  1  0  0  0  0
 29 33  2  0  0  0  0
 31 34  1  0  0  0  0
 32 35  2  0  0  0  0
 33 36  1  0  0  0  0
 34 37  2  0  0  0  0
 36 38  1  0  0  0  0
 37 39  1  0  0  0  0
 38 40  2  0  0  0  0
 38 41  1  0  0  0  0
 41 42  1  0  0  0  0
 42 43  1  0  0  0  0
 43 44  1  0  0  0  0
 44 45  1  0  0  0  0
 45 46  1  0  0  0  0
 46 47  1  0  0  0  0
 47 48  2  0  0  0  0
 47 49  1  0  0  0  0
 13 15  1  0  0  0  0
 15 22  1  0  0  0  0
 17 24  1  0  0  0  0
 30 33  1  0  0  0  0
 35 37  1  0  0  0  0
M  END
>  <MolRegNo>
2563333

>  <m>
=

>  <Value>
500

>  <Unit>
nM

>  <Type>
Ki

>  <pValue>
6.3

>  <Ligand Efficiency>
0.18

>  <Binding Efficiency>
8.97

>  <Surface Efficiency>
4.42

>  <Assay Index>
1467863

>  <Assay Category>


>  <Assay Organism>
Homo sapiens

>  <Target ID>
19

>  <Target Name>
Estrogen receptor alpha

>  <Target Organism>
Homo sapiens

>  <Target Description>
Target is a single protein chain

>  <Sequence Accession>
P03372

>  <Reference>


>  <Pubmed ID>
33965842

>  <DOI>
10.1016/j.bmc.2021.116185

$$$$
2556504
Actelion Java MolfileCreator 1.0

 48 52  0  0  0  0  0  0  0  0999 V2000
    0.0000   -0.0000   -0.0000 S   0  0  0  0  0  0  0  0  0  0  0  0
   -0.7679    1.3113   -0.0000 O   0  0  0  0  0  0  0  0  0  0  0  0
    0.7443    1.3113   -0.0000 O   0  0  0  0  0  0  0  0  0  0  0  0
    1.2877   -0.7443   -0.0000 N   0  0  0  0  0  0  0  0  0  0  0  0
   -1.2995   -0.7443   -0.0000 C   0  0  0  0  0  0  0  0  0  0  0  0
    2.5754    0.0118   -0.0000 C   0  0  0  0  0  0  0  0  0  0  0  0
    1.2759   -2.2328   -0.0000 C   0  0  0  0  0  0  0  0  0  0  0  0
   -2.6108    0.0236   -0.0000 C   0  0  0  0  0  0  0  0  0  0  0  0
   -1.3113   -2.2328   -0.0000 C   0  0  0  0  0  0  0  0  0  0  0  0
    2.5636    1.5121   -0.0000 C   0  0  0  0  0  0  0  0  0  0  0  0
    2.5517   -2.9652   -0.0000 C   0  0  0  0  0  0  0  0  0  0  0  0
   -2.2446   -1.4058   -0.0000 O   0  0  0  0  0  0  0  0  0  0  0  0
   -3.9221   -0.7206   -0.0000 C   0  0  0  0  0  0  0  0  0  0  0  0
   -2.6344   -2.8589   -0.0000 C   0  0  0  0  0  0  0  0  0  0  0  0
    3.8394    2.2682   -0.0000 C   0  0  0  0  0  0  0  0  0  0  0  0
    1.2641    2.2564   -0.0000 C   0  0  0  0  0  0  0  0  0  0  0  0
    3.2724   -1.6539   -0.0000 F   0  0  0  0  0  0  0  0  0  0  0  0
    4.0285   -2.9416   -0.0000 F   0  0  0  0  0  0  0  0  0  0  0  0
    2.5399   -4.4537   -0.0000 F   0  0  0  0  0  0  0  0  0  0  0  0
   -5.2334    0.0354   -0.0000 C   0  0  0  0  0  0  0  0  0  0  0  0
   -3.9339   -2.2092   -0.0000 C   0  0  0  0  0  0  0  0  0  0  0  0
    3.8276    3.7686   -0.0000 C   0  0  0  0  0  0  0  0  0  0  0  0
    1.2404    3.7567   -0.0000 C   0  0  0  0  0  0  0  0  0  0  0  0
   -5.2453    1.5476   -0.0000 C   0  0  0  0  0  0  0  0  0  0  0  0
   -6.5329   -0.7088   -0.0000 C   0  0  0  0  0  0  0  0  0  0  0  0
   -5.2453   -2.9416   -0.0000 C   0  0  0  0  0  0  0  0  0  0  0  0
    2.5281    4.5246   -0.0000 C   0  0  0  0  0  0  0  0  0  0  0  0
   -6.5566    2.3037   -0.0000 C   0  0  0  0  0  0  0  0  0  0  0  0
   -7.8443    0.0473   -0.0000 C   0  0  0  0  0  0  0  0  0  0  0  0
   -6.5566   -2.1855   -0.0000 C   0  0  0  0  0  0  0  0  0  0  0  0
   -5.2571   -4.4183   -0.0000 C   0  0  0  0  0  0  0  0  0  0  0  0
   -7.8679    1.5712   -0.0000 C   0  0  0  0  0  0  0  0  0  0  0  0
   -7.8679   -2.9180   -0.0000 C   0  0  0  0  0  0  0  0  0  0  0  0
   -6.5566   -5.1626   -0.0000 C   0  0  0  0  0  0  0  0  0  0  0  0
   -9.1792    2.3273   -0.0000 N   0  0  0  0  0  0  0  0  0  0  0  0
   -7.8797   -4.4065   -0.0000 C   0  0  0  0  0  0  0  0  0  0  0  0
  -10.4905    1.5830   -0.0000 C   0  0  0  0  0  0  0  0  0  0  0  0
   -9.1910   -5.1508   -0.0000 O   0  0  0  0  0  0  0  0  0  0  0  0
  -10.4905    0.0945   -0.0000 O   0  0  0  0  0  0  0  0  0  0  0  0
  -11.8018    2.3391   -0.0000 C   0  0  0  0  0  0  0  0  0  0  0  0
  -13.1132    1.5948   -0.0000 C   0  0  0  0  0  0  0  0  0  0  0  0
  -14.4245    2.3509   -0.0000 C   0  0  0  0  0  0  0  0  0  0  0  0
  -15.7358    1.6067   -0.0000 C   0  0  0  0  0  0  0  0  0  0  0  0
  -17.0471    2.3627   -0.0000 C   0  0  0  0  0  0  0  0  0  0  0  0
  -18.3584    1.6185   -0.0000 C   0  0  0  0  0  0  0  0  0  0  0  0
  -19.6697    2.3745   -0.0000 C   0  0  0  0  0  0  0  0  0  0  0  0
  -19.6934    3.8867   -0.0000 O   0  0  0  0  0  0  0  0  0  0  0  0
  -20.9692    1.6303   -0.0000 O   0  0  0  0  0  0  0  0  0  0  0  0
  1  2  2  0  0  0  0
  1  3  2  0  0  0  0
  1  4  1  0  0  0  0
  1  5  1  0  0  0  0
  4  6  1  0  0  0  0
  4  7  1  0  0  0  0
  5  8  1  0  0  0  0
  5  9  1  0  0  0  0
  6 10  1  0  0  0  0
  7 11  1  0  0  0  0
  8 12  1  0  0  0  0
  8 13  1  0  0  0  0
  9 14  1  0  0  0  0
 10 15  2  0  0  0  0
 10 16  1  0  0  0  0
 11 17  1  0  0  0  0
 11 18  1  0  0  0  0
 11 19  1  0  0  0  0
 13 20  1  0  0  0  0
 13 21  2  0  0  0  0
 15 22  1  0  0  0  0
 16 23  2  0  0  0  0
 20 24  2  0  0  0  0
 20 25  1  0  0  0  0
 21 26  1  0  0  0  0
 22 27  2  0  0  0  0
 24 28  1  0  0  0  0
 25 29  2  0  0  0  0
 26 30  2  0  0  0  0
 26 31  1  0  0  0  0
 28 32  2  0  0  0  0
 30 33  1  0  0  0  0
 31 34  2  0  0  0  0
 32 35  1  0  0  0  0
 33 36  2  0  0  0  0
 35 37  1  0  0  0  0
 36 38  1  0  0  0  0
 37 39  2  0  0  0  0
 37 40  1  0  0  0  0
 40 41  1  0  0  0  0
 41 42  1  0  0  0  0
 42 43  1  0  0  0  0
 43 44  1  0  0  0  0
 44 45  1  0  0  0  0
 45 46  1  0  0  0  0
 46 47  2  0  0  0  0
 46 48  1  0  0  0  0
 12 14  1  0  0  0  0
 14 21  1  0  0  0  0
 23 27  1  0  0  0  0
 29 32  1  0  0  0  0
 34 36  1  0  0  0  0
M  END
>  <MolRegNo>
2556504

>  <m>
=

>  <Value>
553.57

>  <Unit>
nM

>  <Type>
Ki

>  <pValue>
6.26

>  <Ligand Efficiency>
0.18

>  <Binding Efficiency>
9.11

>  <Surface Efficiency>
4.7

>  <Assay Index>
1467863

>  <Assay Category>


>  <Assay Organism>
Homo sapiens

>  <Target ID>
19

>  <Target Name>
Estrogen receptor alpha

>  <Target Organism>
Homo sapiens

>  <Target Description>
Target is a single protein chain

>  <Sequence Accession>
P03372

>  <Reference>


>  <Pubmed ID>
33965842

>  <DOI>
10.1016/j.bmc.2021.116185

$$$$
2542786
Actelion Java MolfileCreator 1.0

 36 40  0  0  0  0  0  0  0  0999 V2000
    0.0000   -0.0000   -0.0000 S   0  0  0  0  0  0  0  0  0  0  0  0
   -0.7694    1.3139   -0.0000 O   0  0  0  0  0  0  0  0  0  0  0  0
    0.7458    1.3139   -0.0000 O   0  0  0  0  0  0  0  0  0  0  0  0
    1.2903   -0.7458   -0.0000 N   0  0  0  0  0  0  0  0  0  0  0  0
   -1.3021   -0.7458   -0.0000 C   0  0  0  0  0  0  0  0  0  0  0  0
    2.5805    0.0118   -0.0000 C   0  0  0  0  0  0  0  0  0  0  0  0
    1.2784   -2.2373   -0.0000 C   0  0  0  0  0  0  0  0  0  0  0  0
   -2.6160    0.0237   -0.0000 C   0  0  0  0  0  0  0  0  0  0  0  0
   -1.3139   -2.2373   -0.0000 C   0  0  0  0  0  0  0  0  0  0  0  0
    3.8590   -0.7458   -0.0000 C   0  0  0  0  0  0  0  0  0  0  0  0
    2.5687    1.5152   -0.0000 C   0  0  0  0  0  0  0  0  0  0  0  0
    2.5569   -2.9712   -0.0000 C   0  0  0  0  0  0  0  0  0  0  0  0
   -2.2491   -1.4086   -0.0000 O   0  0  0  0  0  0  0  0  0  0  0  0
   -3.9300   -0.7221   -0.0000 C   0  0  0  0  0  0  0  0  0  0  0  0
   -2.6397   -2.8646   -0.0000 C   0  0  0  0  0  0  0  0  0  0  0  0
    5.1492    0.0118   -0.0000 C   0  0  0  0  0  0  0  0  0  0  0  0
    3.8590    2.2728   -0.0000 C   0  0  0  0  0  0  0  0  0  0  0  0
    3.2789   -1.6572   -0.0000 F   0  0  0  0  0  0  0  0  0  0  0  0
    4.0365   -2.9475   -0.0000 F   0  0  0  0  0  0  0  0  0  0  0  0
    2.5450   -4.4627   -0.0000 F   0  0  0  0  0  0  0  0  0  0  0  0
   -5.2439    0.0355   -0.0000 C   0  0  0  0  0  0  0  0  0  0  0  0
   -3.9418   -2.2136   -0.0000 C   0  0  0  0  0  0  0  0  0  0  0  0
    5.1374    1.5270   -0.0000 C   0  0  0  0  0  0  0  0  0  0  0  0
   -5.2558    1.5507   -0.0000 C   0  0  0  0  0  0  0  0  0  0  0  0
   -6.5460   -0.7102   -0.0000 C   0  0  0  0  0  0  0  0  0  0  0  0
   -5.2558   -2.9475   -0.0000 C   0  0  0  0  0  0  0  0  0  0  0  0
   -6.5697    2.3083   -0.0000 C   0  0  0  0  0  0  0  0  0  0  0  0
   -7.8600    0.0473   -0.0000 C   0  0  0  0  0  0  0  0  0  0  0  0
   -6.5697   -2.1899   -0.0000 C   0  0  0  0  0  0  0  0  0  0  0  0
   -5.2676   -4.4272   -0.0000 C   0  0  0  0  0  0  0  0  0  0  0  0
   -7.8836    1.5744   -0.0000 C   0  0  0  0  0  0  0  0  0  0  0  0
   -7.8836   -2.9238   -0.0000 C   0  0  0  0  0  0  0  0  0  0  0  0
   -6.5697   -5.1729   -0.0000 C   0  0  0  0  0  0  0  0  0  0  0  0
   -9.1857    2.3319   -0.0000 O   0  0  0  0  0  0  0  0  0  0  0  0
   -7.8955   -4.4153   -0.0000 C   0  0  0  0  0  0  0  0  0  0  0  0
   -9.2094   -5.1611   -0.0000 O   0  0  0  0  0  0  0  0  0  0  0  0
  1  2  2  0  0  0  0
  1  3  2  0  0  0  0
  1  4  1  0  0  0  0
  1  5  1  0  0  0  0
  4  6  1  0  0  0  0
  4  7  1  0  0  0  0
  5  8  1  0  0  0  0
  5  9  1  0  0  0  0
  6 10  2  0  0  0  0
  6 11  1  0  0  0  0
  7 12  1  0  0  0  0
  8 13  1  0  0  0  0
  8 14  1  0  0  0  0
  9 15  1  0  0  0  0
 10 16  1  0  0  0  0
 11 17  2  0  0  0  0
 12 18  1  0  0  0  0
 12 19  1  0  0  0  0
 12 20  1  0  0  0  0
 14 21  1  0  0  0  0
 14 22  2  0  0  0  0
 16 23  2  0  0  0  0
 21 24  2  0  0  0  0
 21 25  1  0  0  0  0
 22 26  1  0  0  0  0
 24 27  1  0  0  0  0
 25 28  2  0  0  0  0
 26 29  2  0  0  0  0
 26 30  1  0  0  0  0
 27 31  2  0  0  0  0
 29 32  1  0  0  0  0
 30 33  2  0  0  0  0
 31 34  1  0  0  0  0
 32 35  2  0  0  0  0
 35 36  1  0  0  0  0
 13 15  1  0  0  0  0
 15 22  1  0  0  0  0
 17 23  1  0  0  0  0
 28 31  1  0  0  0  0
 33 35  1  0  0  0  0
M  END
>  <MolRegNo>
2542786

>  <m>
=

>  <Value>
108.01

>  <Unit>
nM

>  <Type>
Ki

>  <pValue>
6.97

>  <Ligand Efficiency>
0.26

>  <Binding Efficiency>
13.46

>  <Surface Efficiency>
8

>  <Assay Index>
1467863

>  <Assay Category>


>  <Assay Organism>
Homo sapiens

>  <Target ID>
19

>  <Target Name>
Estrogen receptor alpha

>  <Target Organism>
Homo sapiens

>  <Target Description>
Target is a single protein chain

>  <Sequence Accession>
P03372

>  <Reference>


>  <Pubmed ID>
33965842

>  <DOI>
10.1016/j.bmc.2021.116185

$$$$
2571891
Actelion Java MolfileCreator 1.0

 38 42  0  0  0  0  0  0  0  0999 V2000
    0.0000   -0.0000   -0.0000 O   0  0  0  0  0  0  0  0  0  0  0  0
    1.2828   -0.7364   -0.0000 N   0  0  0  0  0  0  0  0  0  0  0  0
    2.5775    0.0238   -0.0000 O   0  0  0  0  0  0  0  0  0  0  0  0
    1.2710   -2.2331   -0.0000 C   0  0  0  0  0  0  0  0  0  0  0  0
    2.5538   -2.9814   -0.0000 C   0  0  0  0  0  0  0  0  0  0  0  0
   -0.0475   -2.9814   -0.0000 C   0  0  0  0  0  0  0  0  0  0  0  0
    2.5419   -4.4661   -0.0000 C   0  0  0  0  0  0  0  0  0  0  0  0
   -0.0594   -4.4661   -0.0000 C   0  0  0  0  0  0  0  0  0  0  0  0
    1.2234   -5.1907   -0.0000 C   0  0  0  0  0  0  0  0  0  0  0  0
    1.2116   -6.6755   -0.0000 O   0  0  0  0  0  0  0  0  0  0  0  0
   -0.1069   -7.4119   -0.0000 C   0  0  0  0  0  0  0  0  0  0  0  0
   -0.1188   -8.8967   -0.0000 C   0  0  0  0  0  0  0  0  0  0  0  0
    1.1640   -9.6331   -0.0000 O   0  0  0  0  0  0  0  0  0  0  0  0
   -1.4372   -9.6331   -0.0000 N   0  0  0  0  0  0  0  0  0  0  0  0
    2.4588   -8.8729   -0.0000 C   0  0  0  0  0  0  0  0  0  0  0  0
   -2.7557   -8.8610   -0.0000 C   0  0  0  0  0  0  0  0  0  0  0  0
   -1.4491  -11.1297   -0.0000 C   0  0  0  0  0  0  0  0  0  0  0  0
   -2.7676   -7.3525   -0.0000 O   0  0  0  0  0  0  0  0  0  0  0  0
   -4.0623   -9.6093   -0.0000 C   0  0  0  0  0  0  0  0  0  0  0  0
   -0.1663  -11.8662   -0.0000 C   0  0  0  0  0  0  0  0  0  0  0  0
   -2.7676  -11.8662   -0.0000 C   0  0  0  0  0  0  0  0  0  0  0  0
   -5.3808   -8.8491   -0.0000 C   0  0  0  0  0  0  0  0  0  0  0  0
   -4.0742  -11.1060   -0.0000 C   0  0  0  0  0  0  0  0  0  0  0  0
    1.1284  -11.1060   -0.0000 C   0  0  0  0  0  0  0  0  0  0  0  0
   -0.1900  -13.3628   -0.0000 C   0  0  0  0  0  0  0  0  0  0  0  0
   -5.3926   -7.3406   -0.0000 O   0  0  0  0  0  0  0  0  0  0  0  0
   -6.6873   -9.5856   -0.0000 C   0  0  0  0  0  0  0  0  0  0  0  0
   -5.3808  -11.8543   -0.0000 C   0  0  0  0  0  0  0  0  0  0  0  0
    2.4112  -11.8424   -0.0000 C   0  0  0  0  0  0  0  0  0  0  0  0
    1.0928  -14.1111   -0.0000 C   0  0  0  0  0  0  0  0  0  0  0  0
   -6.7111   -6.5804   -0.0000 C   0  0  0  0  0  0  0  0  0  0  0  0
   -8.0058   -8.8254   -0.0000 O   0  0  0  0  0  0  0  0  0  0  0  0
   -6.6992  -11.0822   -0.0000 C   0  0  0  0  0  0  0  0  0  0  0  0
    3.8247  -11.3673   -0.0000 O   0  0  0  0  0  0  0  0  0  0  0  0
    2.3994  -13.3390   -0.0000 C   0  0  0  0  0  0  0  0  0  0  0  0
   -9.3243   -9.5618   -0.0000 C   0  0  0  0  0  0  0  0  0  0  0  0
    4.7037  -12.5670   -0.0000 C   0  0  0  0  0  0  0  0  0  0  0  0
    3.8129  -13.7904   -0.0000 O   0  0  0  0  0  0  0  0  0  0  0  0
  1  2  2  0  0  0  0
  2  3  1  0  0  0  0
  2  4  1  0  0  0  0
  4  5  2  0  0  0  0
  4  6  1  0  0  0  0
  5  7  1  0  0  0  0
  6  8  2  0  0  0  0
  7  9  2  0  0  0  0
  9 10  1  0  0  0  0
 10 11  1  0  0  0  0
 11 12  1  0  0  0  0
 12 13  1  6  0  0  0
 12 14  1  0  0  0  0
 13 15  1  0  0  0  0
 14 16  1  0  0  0  0
 14 17  1  0  0  0  0
 16 18  2  0  0  0  0
 16 19  1  0  0  0  0
 17 20  1  0  0  0  0
 17 21  2  0  0  0  0
 19 22  2  0  0  0  0
 19 23  1  0  0  0  0
 20 24  2  0  0  0  0
 20 25  1  0  0  0  0
 22 26  1  0  0  0  0
 22 27  1  0  0  0  0
 23 28  2  0  0  0  0
 24 29  1  0  0  0  0
 25 30  2  0  0  0  0
 26 31  1  0  0  0  0
 27 32  1  0  0  0  0
 27 33  2  0  0  0  0
 29 34  1  0  0  0  0
 29 35  2  0  0  0  0
 32 36  1  0  0  0  0
 34 37  1  0  0  0  0
 35 38  1  0  0  0  0
  8  9  1  0  0  0  0
 21 23  1  0  0  0  0
 28 33  1  0  0  0  0
 30 35  1  0  0  0  0
 37 38  1  0  0  0  0
M  CHG  2   2   1   3  -1
M  END
>  <MolRegNo>
2571891

>  <m>
=

>  <Value>
17069

>  <Unit>
nM

>  <Type>
Ki

>  <pValue>
4.77

>  <Ligand Efficiency>
0.17

>  <Binding Efficiency>
9.16

>  <Surface Efficiency>
3.96

>  <Assay Index>
1469490

>  <Assay Category>


>  <Assay Organism>
Homo sapiens

>  <Target ID>
19

>  <Target Name>
Estrogen receptor alpha

>  <Target Organism>
Homo sapiens

>  <Target Description>
Target is a single protein chain

>  <Sequence Accession>
P03372

>  <Reference>


>  <Pubmed ID>
34119832

>  <DOI>
10.1016/j.ejmech.2021.113583

$$$$
2730057
Actelion Java MolfileCreator 1.0

 50 58  0  0  0  0  0  0  0  0999 V2000
    0.0000   -0.0000   -0.0000 S   0  0  0  0  0  0  0  0  0  0  0  0
   -0.2492   -1.4299   -0.0000 N   0  0  0  0  0  0  0  0  0  0  0  0
    1.4692    0.2361   -0.0000 N   0  0  0  0  0  0  0  0  0  0  0  0
    1.0888   -2.1251   -0.0000 C   0  0  0  0  0  0  0  0  0  0  0  0
    2.1382   -1.0626   -0.0000 C   0  0  0  0  0  0  0  0  0  0  0  0
    1.4692   -3.5550   -0.0000 C   0  0  0  0  0  0  0  0  0  0  0  0
    3.5681   -1.4430   -0.0000 C   0  0  0  0  0  0  0  0  0  0  0  0
    0.3935   -4.6044   -0.0000 C   0  0  0  0  0  0  0  0  0  0  0  0
    2.9122   -3.9354   -0.0000 C   0  0  0  0  0  0  0  0  0  0  0  0
    4.6175   -0.3673   -0.0000 C   0  0  0  0  0  0  0  0  0  0  0  0
    3.9485   -2.8728   -0.0000 C   0  0  0  0  0  0  0  0  0  0  0  0
   -0.6821   -5.6539   -0.0000 C   0  0  0  0  0  0  0  0  0  0  0  0
    4.2240    1.0888   -0.0000 C   0  0  0  0  0  0  0  0  0  0  0  0
    6.0605   -0.7477   -0.0000 C   0  0  0  0  0  0  0  0  0  0  0  0
   -1.7578   -6.7033   -0.0000 C   0  0  0  0  0  0  0  0  0  0  0  0
    5.2734    2.1514   -0.0000 C   0  0  0  0  0  0  0  0  0  0  0  0
    7.0968    0.3280   -0.0000 C   0  0  0  0  0  0  0  0  0  0  0  0
   -1.9808   -5.0242   -0.0000 O   0  0  0  0  0  0  0  0  0  0  0  0
   -3.2008   -7.1493   -0.0000 C   0  0  0  0  0  0  0  0  0  0  0  0
   -0.9051   -7.8970   -0.0000 C   0  0  0  0  0  0  0  0  0  0  0  0
    6.7033    1.7709   -0.0000 C   0  0  0  0  0  0  0  0  0  0  0  0
   -3.2270   -8.6316   -0.0000 C   0  0  0  0  0  0  0  0  0  0  0  0
   -4.5126   -6.3622   -0.0000 C   0  0  0  0  0  0  0  0  0  0  0  0
   -3.2270   -5.6407   -0.0000 C   0  0  0  0  0  0  0  0  0  0  0  0
   -1.8103   -9.0908   -0.0000 C   0  0  0  0  0  0  0  0  0  0  0  0
    7.7527    2.8466   -0.0000 N   0  0  0  0  0  0  0  0  0  0  0  0
   -4.5388   -9.3531   -0.0000 C   0  0  0  0  0  0  0  0  0  0  0  0
   -5.8375   -7.0968   -0.0000 C   0  0  0  0  0  0  0  0  0  0  0  0
    9.1826    2.4662   -0.0000 C   0  0  0  0  0  0  0  0  0  0  0  0
    7.3461    4.3027   -0.0000 C   0  0  0  0  0  0  0  0  0  0  0  0
   -5.8506   -8.5792   -0.0000 C   0  0  0  0  0  0  0  0  0  0  0  0
   -4.5388  -10.8355   -0.0000 C   0  0  0  0  0  0  0  0  0  0  0  0
    9.5630    1.0232   -0.0000 C   0  0  0  0  0  0  0  0  0  0  0  0
   10.2320    3.5419   -0.0000 C   0  0  0  0  0  0  0  0  0  0  0  0
    5.8900    4.7094   -0.0000 C   0  0  0  0  0  0  0  0  0  0  0  0
    8.3955    5.3784   -0.0000 C   0  0  0  0  0  0  0  0  0  0  0  0
   -7.1624   -9.3138   -0.0000 C   0  0  0  0  0  0  0  0  0  0  0  0
   -5.8506  -11.5701   -0.0000 C   0  0  0  0  0  0  0  0  0  0  0  0
   10.9929    0.6559   -0.0000 C   0  0  0  0  0  0  0  0  0  0  0  0
   11.6619    3.1614   -0.0000 C   0  0  0  0  0  0  0  0  0  0  0  0
    5.4964    6.1655   -0.0000 C   0  0  0  0  0  0  0  0  0  0  0  0
    7.9889    6.8345   -0.0000 C   0  0  0  0  0  0  0  0  0  0  0  0
   -7.1887  -10.7961   -0.0000 C   0  0  0  0  0  0  0  0  0  0  0  0
   -8.4873   -8.5529   -0.0000 C   0  0  0  0  0  0  0  0  0  0  0  0
   12.0292    1.7185   -0.0000 C   0  0  0  0  0  0  0  0  0  0  0  0
    6.5459    7.2411   -0.0000 C   0  0  0  0  0  0  0  0  0  0  0  0
   -8.4742  -11.5438   -0.0000 C   0  0  0  0  0  0  0  0  0  0  0  0
   -9.7991   -9.3007   -0.0000 C   0  0  0  0  0  0  0  0  0  0  0  0
   -9.7991  -10.7830   -0.0000 C   0  0  0  0  0  0  0  0  0  0  0  0
  -11.1109  -11.5176   -0.0000 O   0  0  0  0  0  0  0  0  0  0  0  0
  1  2  1  0  0  0  0
  1  3  1  0  0  0  0
  2  4  2  0  0  0  0
  3  5  2  0  0  0  0
  4  6  1  0  0  0  0
  5  7  1  0  0  0  0
  6  8  1  0  0  0  0
  6  9  2  0  0  0  0
  7 10  1  0  0  0  0
  7 11  2  0  0  0  0
  8 12  3  0  0  0  0
 10 13  2  0  0  0  0
 10 14  1  0  0  0  0
 12 15  1  0  0  0  0
 13 16  1  0  0  0  0
 14 17  2  0  0  0  0
 15 18  1  1  0  0  0
 15 19  1  0  0  0  0
 15 20  1  0  0  0  0
 16 21  2  0  0  0  0
 19 22  1  0  0  0  0
 19 23  1  0  0  0  0
 19 24  1  1  0  0  0
 20 25  1  0  0  0  0
 21 26  1  0  0  0  0
 22 27  1  0  0  0  0
 23 28  1  0  0  0  0
 26 29  1  0  0  0  0
 26 30  1  0  0  0  0
 27 31  1  0  0  0  0
 27 32  1  6  0  0  0
 29 33  2  0  0  0  0
 29 34  1  0  0  0  0
 30 35  2  0  0  0  0
 30 36  1  0  0  0  0
 31 37  1  0  0  0  0
 32 38  1  0  0  0  0
 33 39  1  0  0  0  0
 34 40  2  0  0  0  0
 35 41  1  0  0  0  0
 36 42  2  0  0  0  0
 37 43  2  0  0  0  0
 37 44  1  0  0  0  0
 39 45  2  0  0  0  0
 41 46  2  0  0  0  0
 43 47  1  0  0  0  0
 44 48  2  0  0  0  0
 47 49  2  0  0  0  0
 49 50  1  0  0  0  0
  4  5  1  0  0  0  0
  9 11  1  0  0  0  0
 17 21  1  0  0  0  0
 22 25  1  1  0  0  0
 31 28  1  1  0  0  0
 38 43  1  0  0  0  0
 40 45  1  0  0  0  0
 42 46  1  0  0  0  0
 48 49  1  0  0  0  0
M  END
>  <MolRegNo>
2730057

>  <m>
=

>  <Value>
72.8

>  <Unit>
nM

>  <Type>
Ki

>  <pValue>
7.14

>  <Ligand Efficiency>
0.19

>  <Binding Efficiency>
10.59

>  <Surface Efficiency>
10.27

>  <Assay Index>
1514944

>  <Assay Category>


>  <Assay Organism>
Homo sapiens

>  <Target ID>
19

>  <Target Name>
Estrogen receptor alpha

>  <Target Organism>
Homo sapiens

>  <Target Description>
Target is a single protein chain

>  <Sequence Accession>
P03372

>  <Reference>
J Med Chem 65 (4.0), 3632-3643 (2022)

>  <Pubmed ID>
35164509

>  <DOI>
10.1021/acs.jmedchem.1c02037

$$$$
