114153
Actelion Java MolfileCreator 1.0

 29 32  0  0  0  0  0  0  0  0999 V2000
    0.0000   -0.0000   -0.0000 Cl  0  0  0  0  0  0  0  0  0  0  0  0
   -1.0665   -0.5992   -0.0000 C   0  0  0  0  0  0  0  0  0  0  0  0
   -2.3967    0.1678   -0.0000 C   0  0  0  0  0  0  0  0  0  0  0  0
   -1.0785   -2.1091   -0.0000 C   0  0  0  0  0  0  0  0  0  0  0  0
   -3.7268   -0.5752   -0.0000 C   0  0  0  0  0  0  0  0  0  0  0  0
   -2.4087   -2.8520   -0.0000 C   0  0  0  0  0  0  0  0  0  0  0  0
   -3.7388   -2.0851   -0.0000 C   0  0  0  0  0  0  0  0  0  0  0  0
   -5.0690   -2.8401   -0.0000 C   0  0  0  0  0  0  0  0  0  0  0  0
   -5.0809   -4.3500   -0.0000 C   0  0  0  0  0  0  0  0  0  0  0  0
   -6.4111   -5.1049   -0.0000 C   0  0  0  0  0  0  0  0  0  0  0  0
   -7.7532   -5.7520   -0.0000 O   0  0  0  0  0  0  0  0  0  0  0  0
   -6.5309   -3.6190   -0.0000 O   0  0  0  0  0  0  0  0  0  0  0  0
   -6.4231   -6.6148   -0.0000 C   0  0  0  0  0  0  0  0  0  0  0  0
   -8.7838   -4.6136   -0.0000 C   0  0  0  0  0  0  0  0  0  0  0  0
   -8.0289   -3.2954   -0.0000 C   0  0  0  0  0  0  0  0  0  0  0  0
   -5.1169   -7.3578   -0.0000 N   0  0  0  0  0  0  0  0  0  0  0  0
  -10.3057   -4.7694   -0.0000 C   0  0  0  0  0  0  0  0  0  0  0  0
   -3.7628   -6.7107   -0.0000 C   0  0  0  0  0  0  0  0  0  0  0  0
   -4.9851   -8.8437   -0.0000 C   0  0  0  0  0  0  0  0  0  0  0  0
  -10.9288   -6.1475   -0.0000 S   0  0  0  0  0  0  0  0  0  0  0  0
   -2.7562   -7.8251   -0.0000 N   0  0  0  0  0  0  0  0  0  0  0  0
   -3.5111   -9.1433   -0.0000 C   0  0  0  0  0  0  0  0  0  0  0  0
  -12.4507   -6.3032   -0.0000 C   0  0  0  0  0  0  0  0  0  0  0  0
  -13.0738   -7.6813   -0.0000 C   0  0  0  0  0  0  0  0  0  0  0  0
  -13.3614   -5.0570   -0.0000 C   0  0  0  0  0  0  0  0  0  0  0  0
  -14.5957   -7.8371   -0.0000 C   0  0  0  0  0  0  0  0  0  0  0  0
  -14.8833   -5.2128   -0.0000 C   0  0  0  0  0  0  0  0  0  0  0  0
  -15.5065   -6.5908   -0.0000 C   0  0  0  0  0  0  0  0  0  0  0  0
  -16.7288   -6.7107   -0.0000 N   0  0  0  0  0  0  0  0  0  0  0  0
  1  2  1  0  0  0  0
  2  3  2  0  0  0  0
  2  4  1  0  0  0  0
  3  5  1  0  0  0  0
  4  6  2  0  0  0  0
  5  7  2  0  0  0  0
  7  8  1  0  0  0  0
  8  9  1  0  0  0  0
  9 10  1  0  0  0  0
 10 11  1  1  0  0  0
 10 12  1  0  0  0  0
 10 13  1  0  0  0  0
 11 14  1  0  0  0  0
 12 15  1  0  0  0  0
 13 16  1  0  0  0  0
 14 17  1  6  0  0  0
 16 18  1  0  0  0  0
 16 19  1  0  0  0  0
 17 20  1  0  0  0  0
 18 21  2  0  0  0  0
 19 22  2  0  0  0  0
 20 23  1  0  0  0  0
 23 24  2  0  0  0  0
 23 25  1  0  0  0  0
 24 26  1  0  0  0  0
 25 27  2  0  0  0  0
 26 28  2  0  0  0  0
 28 29  1  0  0  0  0
  6  7  1  0  0  0  0
 14 15  1  0  0  0  0
 21 22  1  0  0  0  0
 27 28  1  0  0  0  0
M  END
>  <MolRegNo>
114153

>  <m>
=

>  <Value>
33

>  <Unit>
nM

>  <Type>
Ki

>  <pValue>
7.48

>  <Ligand Efficiency>
0

>  <Binding Efficiency>
0

>  <Surface Efficiency>
0

>  <Assay Index>
223050

>  <Assay Category>


>  <Assay Organism>


>  <Target ID>
17045

>  <Target Name>
Cytochrome P450 3A4

>  <Target Organism>
Homo sapiens

>  <Target Description>
Target is a single protein chain

>  <Sequence Accession>
P08684

>  <Reference>
J Med Chem 36 (15), 2235-2237 (1993)

>  <Pubmed ID>
8340925

>  <DOI>
10.1021/jm00067a022

$$$$
361894
Actelion Java MolfileCreator 1.0

 12 13  0  0  0  0  0  0  0  0999 V2000
    0.0000   -0.0000   -0.0000 S   0  0  0  0  0  0  0  0  0  0  0  0
   -0.0952   -1.4755   -0.0000 C   0  0  0  0  0  0  0  0  0  0  0  0
    1.4398    0.4046   -0.0000 C   0  0  0  0  0  0  0  0  0  0  0  0
    1.2970   -2.0110   -0.0000 N   0  0  0  0  0  0  0  0  0  0  0  0
   -1.3684   -2.2847   -0.0000 C   0  0  0  0  0  0  0  0  0  0  0  0
    2.2490   -0.8449   -0.0000 C   0  0  0  0  0  0  0  0  0  0  0  0
   -1.3803   -3.7840   -0.0000 C   0  0  0  0  0  0  0  0  0  0  0  0
   -2.6774   -1.5231   -0.0000 C   0  0  0  0  0  0  0  0  0  0  0  0
    3.7364   -0.9044   -0.0000 C   0  0  0  0  0  0  0  0  0  0  0  0
   -2.7012   -4.5218   -0.0000 N   0  0  0  0  0  0  0  0  0  0  0  0
   -3.9863   -2.2609   -0.0000 C   0  0  0  0  0  0  0  0  0  0  0  0
   -4.0101   -3.7602   -0.0000 C   0  0  0  0  0  0  0  0  0  0  0  0
  1  2  1  0  0  0  0
  1  3  1  0  0  0  0
  2  4  2  0  0  0  0
  2  5  1  0  0  0  0
  3  6  2  0  0  0  0
  5  7  2  0  0  0  0
  5  8  1  0  0  0  0
  6  9  1  0  0  0  0
  7 10  1  0  0  0  0
  8 11  2  0  0  0  0
 10 12  2  0  0  0  0
  4  6  1  0  0  0  0
 11 12  1  0  0  0  0
M  END
>  <MolRegNo>
361894

>  <m>
=

>  <Value>
22900

>  <Unit>
nM

>  <Type>
Ki

>  <pValue>
4.64

>  <Ligand Efficiency>
0

>  <Binding Efficiency>
0

>  <Surface Efficiency>
0

>  <Assay Index>
269554

>  <Assay Category>


>  <Assay Organism>
Homo sapiens

>  <Target ID>
17045

>  <Target Name>
Cytochrome P450 3A4

>  <Target Organism>
Homo sapiens

>  <Target Description>
Target is a single protein chain

>  <Sequence Accession>
P08684

>  <Reference>
J Med Chem 49 (24), 6987-7001 (2006)

>  <Pubmed ID>
17125252

>  <DOI>
10.1021/jm060519r

$$$$
361878
Actelion Java MolfileCreator 1.0

 13 14  0  0  0  0  0  0  0  0999 V2000
    0.0000   -0.0000   -0.0000 S   0  0  0  0  0  0  0  0  0  0  0  0
   -0.0952   -1.4754   -0.0000 C   0  0  0  0  0  0  0  0  0  0  0  0
    1.4397    0.4046   -0.0000 C   0  0  0  0  0  0  0  0  0  0  0  0
   -1.3683   -2.2845   -0.0000 C   0  0  0  0  0  0  0  0  0  0  0  0
    1.2969   -2.0109   -0.0000 C   0  0  0  0  0  0  0  0  0  0  0  0
    2.2488   -0.8448   -0.0000 C   0  0  0  0  0  0  0  0  0  0  0  0
    1.9633    1.8205   -0.0000 C   0  0  0  0  0  0  0  0  0  0  0  0
   -2.6772   -1.5230   -0.0000 C   0  0  0  0  0  0  0  0  0  0  0  0
   -1.3802   -3.7838   -0.0000 C   0  0  0  0  0  0  0  0  0  0  0  0
    3.4387    2.0704   -0.0000 N   0  0  0  0  0  0  0  0  0  0  0  0
   -3.9860   -2.2607   -0.0000 C   0  0  0  0  0  0  0  0  0  0  0  0
   -2.7010   -4.5215   -0.0000 C   0  0  0  0  0  0  0  0  0  0  0  0
   -3.9979   -3.7481   -0.0000 C   0  0  0  0  0  0  0  0  0  0  0  0
  1  2  1  0  0  0  0
  1  3  1  0  0  0  0
  2  4  1  0  0  0  0
  2  5  2  0  0  0  0
  3  6  2  0  0  0  0
  3  7  1  0  0  0  0
  4  8  2  0  0  0  0
  4  9  1  0  0  0  0
  7 10  1  0  0  0  0
  8 11  1  0  0  0  0
  9 12  2  0  0  0  0
 11 13  2  0  0  0  0
  5  6  1  0  0  0  0
 12 13  1  0  0  0  0
M  END
>  <MolRegNo>
361878

>  <m>
=

>  <Value>
95500

>  <Unit>
nM

>  <Type>
Ki

>  <pValue>
4.02

>  <Ligand Efficiency>
0

>  <Binding Efficiency>
0

>  <Surface Efficiency>
0

>  <Assay Index>
269554

>  <Assay Category>


>  <Assay Organism>
Homo sapiens

>  <Target ID>
17045

>  <Target Name>
Cytochrome P450 3A4

>  <Target Organism>
Homo sapiens

>  <Target Description>
Target is a single protein chain

>  <Sequence Accession>
P08684

>  <Reference>
J Med Chem 49 (24), 6987-7001 (2006)

>  <Pubmed ID>
17125252

>  <DOI>
10.1021/jm060519r

$$$$
361862
Actelion Java MolfileCreator 1.0

 13 14  0  0  0  0  0  0  0  0999 V2000
    0.0000   -0.0000   -0.0000 O   0  0  0  0  0  0  0  0  0  0  0  0
   -0.0952   -1.4750   -0.0000 C   0  0  0  0  0  0  0  0  0  0  0  0
    1.4393    0.4044   -0.0000 C   0  0  0  0  0  0  0  0  0  0  0  0
   -1.3680   -2.2839   -0.0000 C   0  0  0  0  0  0  0  0  0  0  0  0
    1.2966   -2.0103   -0.0000 C   0  0  0  0  0  0  0  0  0  0  0  0
    2.2482   -0.8446   -0.0000 C   0  0  0  0  0  0  0  0  0  0  0  0
    1.9627    1.8200   -0.0000 C   0  0  0  0  0  0  0  0  0  0  0  0
   -2.6764   -1.5226   -0.0000 C   0  0  0  0  0  0  0  0  0  0  0  0
   -1.3799   -3.7827   -0.0000 C   0  0  0  0  0  0  0  0  0  0  0  0
    3.4377    2.0698   -0.0000 N   0  0  0  0  0  0  0  0  0  0  0  0
   -3.9849   -2.2601   -0.0000 C   0  0  0  0  0  0  0  0  0  0  0  0
   -2.7002   -4.5202   -0.0000 C   0  0  0  0  0  0  0  0  0  0  0  0
   -3.9968   -3.7589   -0.0000 C   0  0  0  0  0  0  0  0  0  0  0  0
  1  2  1  0  0  0  0
  1  3  1  0  0  0  0
  2  4  1  0  0  0  0
  2  5  2  0  0  0  0
  3  6  2  0  0  0  0
  3  7  1  0  0  0  0
  4  8  2  0  0  0  0
  4  9  1  0  0  0  0
  7 10  1  0  0  0  0
  8 11  1  0  0  0  0
  9 12  2  0  0  0  0
 11 13  2  0  0  0  0
  5  6  1  0  0  0  0
 12 13  1  0  0  0  0
M  END
>  <MolRegNo>
361862

>  <m>
=

>  <Value>
63000

>  <Unit>
nM

>  <Type>
Ki

>  <pValue>
4.2

>  <Ligand Efficiency>
0

>  <Binding Efficiency>
0

>  <Surface Efficiency>
0

>  <Assay Index>
269554

>  <Assay Category>


>  <Assay Organism>
Homo sapiens

>  <Target ID>
17045

>  <Target Name>
Cytochrome P450 3A4

>  <Target Organism>
Homo sapiens

>  <Target Description>
Target is a single protein chain

>  <Sequence Accession>
P08684

>  <Reference>
J Med Chem 49 (24), 6987-7001 (2006)

>  <Pubmed ID>
17125252

>  <DOI>
10.1021/jm060519r

$$$$
361861
Actelion Java MolfileCreator 1.0

 16 18  0  0  0  0  0  0  0  0999 V2000
    0.0000   -0.0000   -0.0000 S   0  0  0  0  0  0  0  0  0  0  0  0
   -1.5135   -0.3902   -0.0000 C   0  0  0  0  0  0  0  0  0  0  0  0
    0.0000    1.5016   -0.0000 C   0  0  0  0  0  0  0  0  0  0  0  0
   -2.3411    0.8750   -0.0000 S   0  0  0  0  0  0  0  0  0  0  0  0
   -2.0574   -1.7736   -0.0000 C   0  0  0  0  0  0  0  0  0  0  0  0
   -1.4070    2.0455   -0.0000 C   0  0  0  0  0  0  0  0  0  0  0  0
   -3.5117   -2.1520   -0.0000 O   0  0  0  0  0  0  0  0  0  0  0  0
   -1.2533   -3.0151   -0.0000 C   0  0  0  0  0  0  0  0  0  0  0  0
   -3.6063   -3.6181   -0.0000 C   0  0  0  0  0  0  0  0  0  0  0  0
   -2.1992   -4.1620   -0.0000 C   0  0  0  0  0  0  0  0  0  0  0  0
   -4.8715   -4.4221   -0.0000 C   0  0  0  0  0  0  0  0  0  0  0  0
   -4.8833   -5.9120   -0.0000 C   0  0  0  0  0  0  0  0  0  0  0  0
   -6.1721   -3.6654   -0.0000 C   0  0  0  0  0  0  0  0  0  0  0  0
   -6.1957   -6.6450   -0.0000 N   0  0  0  0  0  0  0  0  0  0  0  0
   -7.4727   -4.3985   -0.0000 C   0  0  0  0  0  0  0  0  0  0  0  0
   -7.4964   -5.8883   -0.0000 C   0  0  0  0  0  0  0  0  0  0  0  0
  1  2  1  0  0  0  0
  1  3  1  0  0  0  0
  2  4  1  0  0  0  0
  2  5  1  0  0  0  0
  3  6  1  0  0  0  0
  5  7  1  0  0  0  0
  5  8  2  0  0  0  0
  7  9  1  0  0  0  0
  8 10  1  0  0  0  0
  9 11  1  0  0  0  0
 11 12  2  0  0  0  0
 11 13  1  0  0  0  0
 12 14  1  0  0  0  0
 13 15  2  0  0  0  0
 14 16  2  0  0  0  0
  4  6  1  0  0  0  0
  9 10  2  0  0  0  0
 15 16  1  0  0  0  0
M  END
>  <MolRegNo>
361861

>  <m>
=

>  <Value>
1100

>  <Unit>
nM

>  <Type>
Ki

>  <pValue>
5.96

>  <Ligand Efficiency>
0

>  <Binding Efficiency>
0

>  <Surface Efficiency>
0

>  <Assay Index>
269554

>  <Assay Category>


>  <Assay Organism>
Homo sapiens

>  <Target ID>
17045

>  <Target Name>
Cytochrome P450 3A4

>  <Target Organism>
Homo sapiens

>  <Target Description>
Target is a single protein chain

>  <Sequence Accession>
P08684

>  <Reference>
J Med Chem 49 (24), 6987-7001 (2006)

>  <Pubmed ID>
17125252

>  <DOI>
10.1021/jm060519r

$$$$
361848
Actelion Java MolfileCreator 1.0

 14 15  0  0  0  0  0  0  0  0999 V2000
    0.0000   -0.0000   -0.0000 S   0  0  0  0  0  0  0  0  0  0  0  0
   -1.4962   -0.2256   -0.0000 C   0  0  0  0  0  0  0  0  0  0  0  0
    0.9381   -1.1519   -0.0000 C   0  0  0  0  0  0  0  0  0  0  0  0
   -2.0425   -1.6150   -0.0000 C   0  0  0  0  0  0  0  0  0  0  0  0
   -3.5031   -1.9950   -0.0000 O   0  0  0  0  0  0  0  0  0  0  0  0
   -1.2350   -2.8619   -0.0000 C   0  0  0  0  0  0  0  0  0  0  0  0
   -3.5981   -3.4675   -0.0000 C   0  0  0  0  0  0  0  0  0  0  0  0
   -2.1850   -4.0137   -0.0000 C   0  0  0  0  0  0  0  0  0  0  0  0
   -4.8687   -4.2750   -0.0000 C   0  0  0  0  0  0  0  0  0  0  0  0
   -4.8806   -5.7712   -0.0000 C   0  0  0  0  0  0  0  0  0  0  0  0
   -6.1750   -3.5150   -0.0000 C   0  0  0  0  0  0  0  0  0  0  0  0
   -6.1987   -6.5075   -0.0000 N   0  0  0  0  0  0  0  0  0  0  0  0
   -7.4812   -4.2512   -0.0000 C   0  0  0  0  0  0  0  0  0  0  0  0
   -7.5050   -5.7475   -0.0000 C   0  0  0  0  0  0  0  0  0  0  0  0
  1  2  1  0  0  0  0
  1  3  1  0  0  0  0
  2  4  1  0  0  0  0
  4  5  1  0  0  0  0
  4  6  2  0  0  0  0
  5  7  1  0  0  0  0
  6  8  1  0  0  0  0
  7  9  1  0  0  0  0
  9 10  2  0  0  0  0
  9 11  1  0  0  0  0
 10 12  1  0  0  0  0
 11 13  2  0  0  0  0
 12 14  2  0  0  0  0
  7  8  2  0  0  0  0
 13 14  1  0  0  0  0
M  END
>  <MolRegNo>
361848

>  <m>
=

>  <Value>
7400

>  <Unit>
nM

>  <Type>
Ki

>  <pValue>
5.13

>  <Ligand Efficiency>
0

>  <Binding Efficiency>
0

>  <Surface Efficiency>
0

>  <Assay Index>
269554

>  <Assay Category>


>  <Assay Organism>
Homo sapiens

>  <Target ID>
17045

>  <Target Name>
Cytochrome P450 3A4

>  <Target Organism>
Homo sapiens

>  <Target Description>
Target is a single protein chain

>  <Sequence Accession>
P08684

>  <Reference>
J Med Chem 49 (24), 6987-7001 (2006)

>  <Pubmed ID>
17125252

>  <DOI>
10.1021/jm060519r

$$$$
361847
Actelion Java MolfileCreator 1.0

 13 14  0  0  0  0  0  0  0  0999 V2000
    0.0000   -0.0000   -0.0000 S   0  0  0  0  0  0  0  0  0  0  0  0
   -1.4952   -0.2255   -0.0000 C   0  0  0  0  0  0  0  0  0  0  0  0
   -2.0411   -1.6139   -0.0000 C   0  0  0  0  0  0  0  0  0  0  0  0
   -3.5007   -1.9936   -0.0000 O   0  0  0  0  0  0  0  0  0  0  0  0
   -1.2341   -2.8599   -0.0000 C   0  0  0  0  0  0  0  0  0  0  0  0
   -3.5956   -3.4651   -0.0000 C   0  0  0  0  0  0  0  0  0  0  0  0
   -2.1835   -4.0110   -0.0000 C   0  0  0  0  0  0  0  0  0  0  0  0
   -4.8654   -4.2720   -0.0000 C   0  0  0  0  0  0  0  0  0  0  0  0
   -4.8773   -5.7673   -0.0000 C   0  0  0  0  0  0  0  0  0  0  0  0
   -6.1707   -3.5126   -0.0000 C   0  0  0  0  0  0  0  0  0  0  0  0
   -6.1945   -6.5030   -0.0000 N   0  0  0  0  0  0  0  0  0  0  0  0
   -7.4761   -4.2483   -0.0000 C   0  0  0  0  0  0  0  0  0  0  0  0
   -7.4998   -5.7435   -0.0000 C   0  0  0  0  0  0  0  0  0  0  0  0
  1  2  1  0  0  0  0
  2  3  1  0  0  0  0
  3  4  1  0  0  0  0
  3  5  2  0  0  0  0
  4  6  1  0  0  0  0
  5  7  1  0  0  0  0
  6  8  1  0  0  0  0
  8  9  2  0  0  0  0
  8 10  1  0  0  0  0
  9 11  1  0  0  0  0
 10 12  2  0  0  0  0
 11 13  2  0  0  0  0
  6  7  2  0  0  0  0
 12 13  1  0  0  0  0
M  END
>  <MolRegNo>
361847

>  <m>
=

>  <Value>
3100

>  <Unit>
nM

>  <Type>
Ki

>  <pValue>
5.51

>  <Ligand Efficiency>
0

>  <Binding Efficiency>
0

>  <Surface Efficiency>
0

>  <Assay Index>
269554

>  <Assay Category>


>  <Assay Organism>
Homo sapiens

>  <Target ID>
17045

>  <Target Name>
Cytochrome P450 3A4

>  <Target Organism>
Homo sapiens

>  <Target Description>
Target is a single protein chain

>  <Sequence Accession>
P08684

>  <Reference>
J Med Chem 49 (24), 6987-7001 (2006)

>  <Pubmed ID>
17125252

>  <DOI>
10.1021/jm060519r

$$$$
361833
Actelion Java MolfileCreator 1.0

 16 17  0  0  0  0  0  0  0  0999 V2000
    0.0000   -0.0000   -0.0000 S   0  0  0  0  0  0  0  0  0  0  0  0
    0.5218    1.4113   -0.0000 C   0  0  0  0  0  0  0  0  0  0  0  0
   -1.4943   -0.2253   -0.0000 C   0  0  0  0  0  0  0  0  0  0  0  0
   -0.4388    2.5853   -0.0000 O   0  0  0  0  0  0  0  0  0  0  0  0
    1.9924    1.6603   -0.0000 C   0  0  0  0  0  0  0  0  0  0  0  0
   -2.0398   -1.6129   -0.0000 C   0  0  0  0  0  0  0  0  0  0  0  0
   -3.4985   -1.9924   -0.0000 O   0  0  0  0  0  0  0  0  0  0  0  0
   -1.2334   -2.8581   -0.0000 C   0  0  0  0  0  0  0  0  0  0  0  0
   -3.5934   -3.4629   -0.0000 C   0  0  0  0  0  0  0  0  0  0  0  0
   -2.1821   -4.0085   -0.0000 C   0  0  0  0  0  0  0  0  0  0  0  0
   -4.8623   -4.2694   -0.0000 C   0  0  0  0  0  0  0  0  0  0  0  0
   -4.8742   -5.7637   -0.0000 C   0  0  0  0  0  0  0  0  0  0  0  0
   -6.1669   -3.5104   -0.0000 C   0  0  0  0  0  0  0  0  0  0  0  0
   -6.1906   -6.4989   -0.0000 N   0  0  0  0  0  0  0  0  0  0  0  0
   -7.4714   -4.2457   -0.0000 C   0  0  0  0  0  0  0  0  0  0  0  0
   -7.4951   -5.7399   -0.0000 C   0  0  0  0  0  0  0  0  0  0  0  0
  1  2  1  0  0  0  0
  1  3  1  0  0  0  0
  2  4  2  0  0  0  0
  2  5  1  0  0  0  0
  3  6  1  0  0  0  0
  6  7  1  0  0  0  0
  6  8  2  0  0  0  0
  7  9  1  0  0  0  0
  8 10  1  0  0  0  0
  9 11  1  0  0  0  0
 11 12  2  0  0  0  0
 11 13  1  0  0  0  0
 12 14  1  0  0  0  0
 13 15  2  0  0  0  0
 14 16  2  0  0  0  0
  9 10  2  0  0  0  0
 15 16  1  0  0  0  0
M  END
>  <MolRegNo>
361833

>  <m>
=

>  <Value>
1500

>  <Unit>
nM

>  <Type>
Ki

>  <pValue>
5.82

>  <Ligand Efficiency>
0

>  <Binding Efficiency>
0

>  <Surface Efficiency>
0

>  <Assay Index>
269554

>  <Assay Category>


>  <Assay Organism>
Homo sapiens

>  <Target ID>
17045

>  <Target Name>
Cytochrome P450 3A4

>  <Target Organism>
Homo sapiens

>  <Target Description>
Target is a single protein chain

>  <Sequence Accession>
P08684

>  <Reference>
J Med Chem 49 (24), 6987-7001 (2006)

>  <Pubmed ID>
17125252

>  <DOI>
10.1021/jm060519r

$$$$
299728
Actelion Java MolfileCreator 1.0

 13 14  0  0  0  0  0  0  0  0999 V2000
    0.0000   -0.0000   -0.0000 S   0  0  0  0  0  0  0  0  0  0  0  0
   -0.1454    1.5269   -0.0000 C   0  0  0  0  0  0  0  0  0  0  0  0
    1.4905   -0.3151   -0.0000 C   0  0  0  0  0  0  0  0  0  0  0  0
   -1.4905    2.3146   -0.0000 C   0  0  0  0  0  0  0  0  0  0  0  0
    1.2361    2.1692   -0.0000 C   0  0  0  0  0  0  0  0  0  0  0  0
    2.2540    1.0301   -0.0000 C   0  0  0  0  0  0  0  0  0  0  0  0
   -2.8357    1.5511   -0.0000 C   0  0  0  0  0  0  0  0  0  0  0  0
   -1.5027    3.8657   -0.0000 C   0  0  0  0  0  0  0  0  0  0  0  0
    1.4784    3.3810   -0.0000 C   0  0  0  0  0  0  0  0  0  0  0  0
   -4.1808    2.3267   -0.0000 N   0  0  0  0  0  0  0  0  0  0  0  0
   -2.8478    4.6413   -0.0000 C   0  0  0  0  0  0  0  0  0  0  0  0
   -4.1929    3.8778   -0.0000 C   0  0  0  0  0  0  0  0  0  0  0  0
   -5.2714    4.5080   -0.0000 F   0  0  0  0  0  0  0  0  0  0  0  0
  1  2  1  0  0  0  0
  1  3  1  0  0  0  0
  2  4  1  0  0  0  0
  2  5  2  0  0  0  0
  3  6  2  0  0  0  0
  4  7  2  0  0  0  0
  4  8  1  0  0  0  0
  5  9  1  0  0  0  0
  7 10  1  0  0  0  0
  8 11  2  0  0  0  0
 10 12  2  0  0  0  0
 12 13  1  0  0  0  0
  5  6  1  0  0  0  0
 11 12  1  0  0  0  0
M  END
>  <MolRegNo>
299728

>  <m>
=

>  <Value>
19600

>  <Unit>
nM

>  <Type>
Ki

>  <pValue>
4.71

>  <Ligand Efficiency>
0

>  <Binding Efficiency>
0

>  <Surface Efficiency>
0

>  <Assay Index>
269554

>  <Assay Category>


>  <Assay Organism>
Homo sapiens

>  <Target ID>
17045

>  <Target Name>
Cytochrome P450 3A4

>  <Target Organism>
Homo sapiens

>  <Target Description>
Target is a single protein chain

>  <Sequence Accession>
P08684

>  <Reference>
J Med Chem 49 (24), 6987-7001 (2006)

>  <Pubmed ID>
17125252

>  <DOI>
10.1021/jm060519r

$$$$
249467
Actelion Java MolfileCreator 1.0

 11 11  0  0  0  0  0  0  0  0999 V2000
    0.0000   -0.0000   -0.0000 N   0  0  0  0  0  0  0  0  0  0  0  0
    1.3203   -0.7510   -0.0000 C   0  0  0  0  0  0  0  0  0  0  0  0
   -0.0121    1.5505   -0.0000 C   0  0  0  0  0  0  0  0  0  0  0  0
    2.6407    0.0242   -0.0000 C   0  0  0  0  0  0  0  0  0  0  0  0
    1.3082    2.3257   -0.0000 C   0  0  0  0  0  0  0  0  0  0  0  0
    3.9610   -0.7268   -0.0000 C   0  0  0  0  0  0  0  0  0  0  0  0
    2.6286    1.5747   -0.0000 C   0  0  0  0  0  0  0  0  0  0  0  0
    5.2813   -1.4778   -0.0000 C   0  0  0  0  0  0  0  0  0  0  0  0
    6.6017   -2.2288   -0.0000 C   0  0  0  0  0  0  0  0  0  0  0  0
    6.5896   -3.7551   -0.0000 N   0  0  0  0  0  0  0  0  0  0  0  0
    7.6434   -4.3607   -0.0000 C   0  0  0  0  0  0  0  0  0  0  0  0
  1  2  2  0  0  0  0
  1  3  1  0  0  0  0
  2  4  1  0  0  0  0
  3  5  2  0  0  0  0
  4  6  1  0  0  0  0
  4  7  2  0  0  0  0
  6  8  3  0  0  0  0
  8  9  1  0  0  0  0
  9 10  1  0  0  0  0
 10 11  1  0  0  0  0
  5  7  1  0  0  0  0
M  END
>  <MolRegNo>
249467

>  <m>
=

>  <Value>
251000

>  <Unit>
nM

>  <Type>
Ki

>  <pValue>
0

>  <Ligand Efficiency>
0

>  <Binding Efficiency>
0

>  <Surface Efficiency>
0

>  <Assay Index>
269554

>  <Assay Category>


>  <Assay Organism>
Homo sapiens

>  <Target ID>
17045

>  <Target Name>
Cytochrome P450 3A4

>  <Target Organism>
Homo sapiens

>  <Target Description>
Target is a single protein chain

>  <Sequence Accession>
P08684

>  <Reference>
J Med Chem 49 (24), 6987-7001 (2006)

>  <Pubmed ID>
17125252

>  <DOI>
10.1021/jm060519r

$$$$
299668
Actelion Java MolfileCreator 1.0

 10 10  0  0  0  0  0  0  0  0999 V2000
    0.0000   -0.0000   -0.0000 N   0  0  0  0  0  0  0  0  0  0  0  0
    1.3189   -0.7623   -0.0000 C   0  0  0  0  0  0  0  0  0  0  0  0
   -0.0121    1.5488   -0.0000 C   0  0  0  0  0  0  0  0  0  0  0  0
    2.6378    0.0121   -0.0000 C   0  0  0  0  0  0  0  0  0  0  0  0
    1.3068    2.3232   -0.0000 C   0  0  0  0  0  0  0  0  0  0  0  0
    3.9568   -0.7502   -0.0000 C   0  0  0  0  0  0  0  0  0  0  0  0
    2.6257    1.5609   -0.0000 C   0  0  0  0  0  0  0  0  0  0  0  0
    5.2757   -1.5125   -0.0000 C   0  0  0  0  0  0  0  0  0  0  0  0
    6.5946   -2.2748   -0.0000 C   0  0  0  0  0  0  0  0  0  0  0  0
    7.6473   -1.6456   -0.0000 N   0  0  0  0  0  0  0  0  0  0  0  0
  1  2  2  0  0  0  0
  1  3  1  0  0  0  0
  2  4  1  0  0  0  0
  3  5  2  0  0  0  0
  4  6  1  0  0  0  0
  4  7  2  0  0  0  0
  6  8  3  0  0  0  0
  8  9  1  0  0  0  0
  9 10  1  0  0  0  0
  5  7  1  0  0  0  0
M  END
>  <MolRegNo>
299668

>  <m>
=

>  <Value>
15200

>  <Unit>
nM

>  <Type>
Ki

>  <pValue>
4.82

>  <Ligand Efficiency>
0

>  <Binding Efficiency>
0

>  <Surface Efficiency>
0

>  <Assay Index>
269554

>  <Assay Category>


>  <Assay Organism>
Homo sapiens

>  <Target ID>
17045

>  <Target Name>
Cytochrome P450 3A4

>  <Target Organism>
Homo sapiens

>  <Target Description>
Target is a single protein chain

>  <Sequence Accession>
P08684

>  <Reference>
J Med Chem 49 (24), 6987-7001 (2006)

>  <Pubmed ID>
17125252

>  <DOI>
10.1021/jm060519r

$$$$
299731
Actelion Java MolfileCreator 1.0

 15 16  0  0  0  0  0  0  0  0999 V2000
    0.0000   -0.0000   -0.0000 O   0  0  0  0  0  0  0  0  0  0  0  0
   -1.4048   -0.6176   -0.0000 C   0  0  0  0  0  0  0  0  0  0  0  0
    1.0173   -1.1384   -0.0000 C   0  0  0  0  0  0  0  0  0  0  0  0
   -2.7491    0.1695   -0.0000 C   0  0  0  0  0  0  0  0  0  0  0  0
   -1.2837   -2.1194   -0.0000 C   0  0  0  0  0  0  0  0  0  0  0  0
    0.2301   -2.4585   -0.0000 C   0  0  0  0  0  0  0  0  0  0  0  0
    2.5311   -0.9689   -0.0000 C   0  0  0  0  0  0  0  0  0  0  0  0
   -4.0934   -0.5934   -0.0000 C   0  0  0  0  0  0  0  0  0  0  0  0
   -2.7612    1.7197   -0.0000 C   0  0  0  0  0  0  0  0  0  0  0  0
    3.4152   -2.2041   -0.0000 N   0  0  0  0  0  0  0  0  0  0  0  0
   -5.4377    0.1817   -0.0000 N   0  0  0  0  0  0  0  0  0  0  0  0
   -4.1055    2.4948   -0.0000 C   0  0  0  0  0  0  0  0  0  0  0  0
    4.6263   -2.0709   -0.0000 C   0  0  0  0  0  0  0  0  0  0  0  0
    2.8945   -3.3183   -0.0000 C   0  0  0  0  0  0  0  0  0  0  0  0
   -5.4498    1.7318   -0.0000 C   0  0  0  0  0  0  0  0  0  0  0  0
  1  2  1  0  0  0  0
  1  3  1  0  0  0  0
  2  4  1  0  0  0  0
  2  5  2  0  0  0  0
  3  6  2  0  0  0  0
  3  7  1  0  0  0  0
  4  8  2  0  0  0  0
  4  9  1  0  0  0  0
  7 10  1  0  0  0  0
  8 11  1  0  0  0  0
  9 12  2  0  0  0  0
 10 13  1  0  0  0  0
 10 14  1  0  0  0  0
 11 15  2  0  0  0  0
  5  6  1  0  0  0  0
 12 15  1  0  0  0  0
M  END
>  <MolRegNo>
299731

>  <m>
=

>  <Value>
147000

>  <Unit>
nM

>  <Type>
Ki

>  <pValue>
0

>  <Ligand Efficiency>
0

>  <Binding Efficiency>
0

>  <Surface Efficiency>
0

>  <Assay Index>
269554

>  <Assay Category>


>  <Assay Organism>
Homo sapiens

>  <Target ID>
17045

>  <Target Name>
Cytochrome P450 3A4

>  <Target Organism>
Homo sapiens

>  <Target Description>
Target is a single protein chain

>  <Sequence Accession>
P08684

>  <Reference>
J Med Chem 49 (24), 6987-7001 (2006)

>  <Pubmed ID>
17125252

>  <DOI>
10.1021/jm060519r

$$$$
299730
Actelion Java MolfileCreator 1.0

 15 16  0  0  0  0  0  0  0  0999 V2000
    0.0000   -0.0000   -0.0000 S   0  0  0  0  0  0  0  0  0  0  0  0
   -0.1452    1.5246   -0.0000 C   0  0  0  0  0  0  0  0  0  0  0  0
    1.4883   -0.3146   -0.0000 C   0  0  0  0  0  0  0  0  0  0  0  0
   -1.4883    2.3111   -0.0000 C   0  0  0  0  0  0  0  0  0  0  0  0
    1.2342    2.1659   -0.0000 C   0  0  0  0  0  0  0  0  0  0  0  0
    2.2506    1.0285   -0.0000 C   0  0  0  0  0  0  0  0  0  0  0  0
    2.0933   -1.7061   -0.0000 C   0  0  0  0  0  0  0  0  0  0  0  0
   -2.8314    1.5488   -0.0000 C   0  0  0  0  0  0  0  0  0  0  0  0
   -1.5004    3.8599   -0.0000 C   0  0  0  0  0  0  0  0  0  0  0  0
    1.1737   -2.9403   -0.0000 N   0  0  0  0  0  0  0  0  0  0  0  0
   -4.1745    2.3232   -0.0000 N   0  0  0  0  0  0  0  0  0  0  0  0
   -2.8435    4.6343   -0.0000 C   0  0  0  0  0  0  0  0  0  0  0  0
    1.6577   -4.0535   -0.0000 C   0  0  0  0  0  0  0  0  0  0  0  0
   -0.0605   -2.7951   -0.0000 C   0  0  0  0  0  0  0  0  0  0  0  0
   -4.1866    3.8720   -0.0000 C   0  0  0  0  0  0  0  0  0  0  0  0
  1  2  1  0  0  0  0
  1  3  1  0  0  0  0
  2  4  1  0  0  0  0
  2  5  2  0  0  0  0
  3  6  2  0  0  0  0
  3  7  1  0  0  0  0
  4  8  2  0  0  0  0
  4  9  1  0  0  0  0
  7 10  1  0  0  0  0
  8 11  1  0  0  0  0
  9 12  2  0  0  0  0
 10 13  1  0  0  0  0
 10 14  1  0  0  0  0
 11 15  2  0  0  0  0
  5  6  1  0  0  0  0
 12 15  1  0  0  0  0
M  END
>  <MolRegNo>
299730

>  <m>
=

>  <Value>
110000

>  <Unit>
nM

>  <Type>
Ki

>  <pValue>
0

>  <Ligand Efficiency>
0

>  <Binding Efficiency>
0

>  <Surface Efficiency>
0

>  <Assay Index>
269554

>  <Assay Category>


>  <Assay Organism>
Homo sapiens

>  <Target ID>
17045

>  <Target Name>
Cytochrome P450 3A4

>  <Target Organism>
Homo sapiens

>  <Target Description>
Target is a single protein chain

>  <Sequence Accession>
P08684

>  <Reference>
J Med Chem 49 (24), 6987-7001 (2006)

>  <Pubmed ID>
17125252

>  <DOI>
10.1021/jm060519r

$$$$
498612
Actelion Java MolfileCreator 1.0

 59 63  0  0  0  0  0  0  0  0999 V2000
    0.0000   -0.0000   -0.0000 O   0  0  0  0  0  0  0  0  0  0  0  0
   -0.0119   -1.4935   -0.0000 C   0  0  0  0  0  0  0  0  0  0  0  0
    1.1948   -2.3658   -0.0000 N   0  0  0  0  0  0  0  0  0  0  0  0
   -1.2307   -2.3658   -0.0000 N   0  0  0  0  0  0  0  0  0  0  0  0
    2.4733   -1.5891   -0.0000 C   0  0  0  0  0  0  0  0  0  0  0  0
    0.7169   -3.7756   -0.0000 C   0  0  0  0  0  0  0  0  0  0  0  0
   -0.7886   -3.7756   -0.0000 C   0  0  0  0  0  0  0  0  0  0  0  0
   -2.5450   -1.6011   -0.0000 C   0  0  0  0  0  0  0  0  0  0  0  0
    3.7637   -2.3180   -0.0000 C   0  0  0  0  0  0  0  0  0  0  0  0
    2.4494   -0.0717   -0.0000 C   0  0  0  0  0  0  0  0  0  0  0  0
   -3.8593   -2.3419   -0.0000 C   0  0  0  0  0  0  0  0  0  0  0  0
    3.7637   -3.8115   -0.0000 O   0  0  0  0  0  0  0  0  0  0  0  0
    5.0422   -1.5413   -0.0000 N   0  0  0  0  0  0  0  0  0  0  0  0
    2.4255    1.4457   -0.0000 C   0  0  0  0  0  0  0  0  0  0  0  0
    0.9320   -0.0717   -0.0000 C   0  0  0  0  0  0  0  0  0  0  0  0
    3.9429   -0.0478   -0.0000 C   0  0  0  0  0  0  0  0  0  0  0  0
   -5.1616   -1.5772   -0.0000 C   0  0  0  0  0  0  0  0  0  0  0  0
   -3.8593   -3.8234   -0.0000 C   0  0  0  0  0  0  0  0  0  0  0  0
    6.3326   -2.2702   -0.0000 C   0  0  0  0  0  0  0  0  0  0  0  0
   -6.4759   -2.3180   -0.0000 C   0  0  0  0  0  0  0  0  0  0  0  0
   -5.1616   -4.5642   -0.0000 C   0  0  0  0  0  0  0  0  0  0  0  0
    7.6110   -1.4935   -0.0000 C   0  0  0  0  0  0  0  0  0  0  0  0
    6.3326   -3.7637   -0.0000 C   0  0  0  0  0  0  0  0  0  0  0  0
   -6.4879   -3.8115   -0.0000 C   0  0  0  0  0  0  0  0  0  0  0  0
    7.5871    0.0239   -0.0000 O   0  0  0  0  0  0  0  0  0  0  0  0
    8.9014   -2.2224   -0.0000 C   0  0  0  0  0  0  0  0  0  0  0  0
    5.5559   -5.0422   -0.0000 C   0  0  0  0  0  0  0  0  0  0  0  0
   10.1799   -1.4457   -0.0000 C   0  0  0  0  0  0  0  0  0  0  0  0
    4.0385   -5.0063   -0.0000 C   0  0  0  0  0  0  0  0  0  0  0  0
    6.2848   -6.3326   -0.0000 C   0  0  0  0  0  0  0  0  0  0  0  0
   11.4703   -2.1746   -0.0000 N   0  0  0  0  0  0  0  0  0  0  0  0
   10.1560    0.0717   -0.0000 C   0  0  0  0  0  0  0  0  0  0  0  0
    3.2619   -6.2848   -0.0000 C   0  0  0  0  0  0  0  0  0  0  0  0
    5.5201   -7.6110   -0.0000 C   0  0  0  0  0  0  0  0  0  0  0  0
   12.7488   -1.3979   -0.0000 C   0  0  0  0  0  0  0  0  0  0  0  0
   10.8848    1.3979   -0.0000 C   0  0  0  0  0  0  0  0  0  0  0  0
    3.9907   -7.5752   -0.0000 C   0  0  0  0  0  0  0  0  0  0  0  0
   12.7249    0.1195   -0.0000 O   0  0  0  0  0  0  0  0  0  0  0  0
   14.0392   -2.1268   -0.0000 C   0  0  0  0  0  0  0  0  0  0  0  0
   12.3903    1.4218   -0.0000 C   0  0  0  0  0  0  0  0  0  0  0  0
   10.1202    2.7003   -0.0000 C   0  0  0  0  0  0  0  0  0  0  0  0
   15.3176   -1.3502   -0.0000 N   0  0  0  0  0  0  0  0  0  0  0  0
   14.0392   -3.6203   -0.0000 C   0  0  0  0  0  0  0  0  0  0  0  0
   13.1192    2.7481   -0.0000 C   0  0  0  0  0  0  0  0  0  0  0  0
   10.8371    4.0266   -0.0000 C   0  0  0  0  0  0  0  0  0  0  0  0
   16.6081   -2.0790   -0.0000 C   0  0  0  0  0  0  0  0  0  0  0  0
   14.0153   -5.1019   -0.0000 C   0  0  0  0  0  0  0  0  0  0  0  0
   15.5327   -3.6084   -0.0000 C   0  0  0  0  0  0  0  0  0  0  0  0
   12.5218   -3.6203   -0.0000 C   0  0  0  0  0  0  0  0  0  0  0  0
   12.3425    4.0505   -0.0000 C   0  0  0  0  0  0  0  0  0  0  0  0
   16.6081   -3.5725   -0.0000 O   0  0  0  0  0  0  0  0  0  0  0  0
   17.8865   -1.3024   -0.0000 O   0  0  0  0  0  0  0  0  0  0  0  0
   13.0475    5.3648   -0.0000 C   0  0  0  0  0  0  0  0  0  0  0  0
   19.1769   -2.0312   -0.0000 C   0  0  0  0  0  0  0  0  0  0  0  0
   14.5530    5.3887   -0.0000 N   0  0  0  0  0  0  0  0  0  0  0  0
   12.2708    6.6552   -0.0000 C   0  0  0  0  0  0  0  0  0  0  0  0
   15.2699    6.7030   -0.0000 C   0  0  0  0  0  0  0  0  0  0  0  0
   12.9997    7.9814   -0.0000 C   0  0  0  0  0  0  0  0  0  0  0  0
   14.4932    8.0053   -0.0000 C   0  0  0  0  0  0  0  0  0  0  0  0
  1  2  2  0  0  0  0
  2  3  1  0  0  0  0
  2  4  1  0  0  0  0
  5  3  1  1  0  0  0
  3  6  1  0  0  0  0
  4  7  1  0  0  0  0
  4  8  1  0  0  0  0
  5  9  1  0  0  0  0
  5 10  1  0  0  0  0
  8 11  1  0  0  0  0
  9 12  2  0  0  0  0
  9 13  1  0  0  0  0
 10 14  1  0  0  0  0
 10 15  1  0  0  0  0
 10 16  1  0  0  0  0
 11 17  2  0  0  0  0
 11 18  1  0  0  0  0
 19 13  1  6  0  0  0
 17 20  1  0  0  0  0
 18 21  2  0  0  0  0
 19 22  1  0  0  0  0
 19 23  1  0  0  0  0
 20 24  2  0  0  0  0
 22 25  1  1  0  0  0
 22 26  1  0  0  0  0
 23 27  1  0  0  0  0
 26 28  1  0  0  0  0
 27 29  2  0  0  0  0
 27 30  1  0  0  0  0
 28 31  1  6  0  0  0
 28 32  1  0  0  0  0
 29 33  1  0  0  0  0
 30 34  2  0  0  0  0
 31 35  1  0  0  0  0
 32 36  1  0  0  0  0
 33 37  2  0  0  0  0
 35 38  2  0  0  0  0
 35 39  1  0  0  0  0
 36 40  2  0  0  0  0
 36 41  1  0  0  0  0
 39 42  1  1  0  0  0
 39 43  1  0  0  0  0
 40 44  1  0  0  0  0
 41 45  2  0  0  0  0
 42 46  1  0  0  0  0
 43 47  1  0  0  0  0
 43 48  1  0  0  0  0
 43 49  1  0  0  0  0
 44 50  2  0  0  0  0
 46 51  2  0  0  0  0
 46 52  1  0  0  0  0
 50 53  1  0  0  0  0
 52 54  1  0  0  0  0
 53 55  2  0  0  0  0
 53 56  1  0  0  0  0
 55 57  1  0  0  0  0
 56 58  2  0  0  0  0
 57 59  2  0  0  0  0
  6  7  1  0  0  0  0
 21 24  1  0  0  0  0
 34 37  1  0  0  0  0
 45 50  1  0  0  0  0
 58 59  1  0  0  0  0
M  END
>  <MolRegNo>
498612

>  <m>
=

>  <Value>
18

>  <Unit>
nM

>  <Type>
Ki

>  <pValue>
7.75

>  <Ligand Efficiency>
0

>  <Binding Efficiency>
0

>  <Surface Efficiency>
0

>  <Assay Index>
412148

>  <Assay Category>


>  <Assay Organism>


>  <Target ID>
17045

>  <Target Name>
Cytochrome P450 3A4

>  <Target Organism>
Homo sapiens

>  <Target Description>
Target is a single protein chain

>  <Sequence Accession>
P08684

>  <Reference>
J Med Chem 52 (8), 2571-2586 (2009)

>  <Pubmed ID>
19323562

>  <DOI>
10.1021/jm900044w

$$$$
498610
Actelion Java MolfileCreator 1.0

 63 67  0  0  0  0  0  0  0  0999 V2000
    0.0000   -0.0000   -0.0000 O   0  0  0  0  0  0  0  0  0  0  0  0
   -0.0119   -1.4929   -0.0000 C   0  0  0  0  0  0  0  0  0  0  0  0
    1.1943   -2.3647   -0.0000 N   0  0  0  0  0  0  0  0  0  0  0  0
   -1.2301   -2.3647   -0.0000 N   0  0  0  0  0  0  0  0  0  0  0  0
    2.4722   -1.5884   -0.0000 C   0  0  0  0  0  0  0  0  0  0  0  0
    0.7166   -3.7740   -0.0000 C   0  0  0  0  0  0  0  0  0  0  0  0
   -0.7882   -3.7740   -0.0000 C   0  0  0  0  0  0  0  0  0  0  0  0
   -2.5439   -1.6004   -0.0000 C   0  0  0  0  0  0  0  0  0  0  0  0
    3.7620   -2.3169   -0.0000 C   0  0  0  0  0  0  0  0  0  0  0  0
    2.4483   -0.0717   -0.0000 C   0  0  0  0  0  0  0  0  0  0  0  0
   -3.8576   -2.3408   -0.0000 C   0  0  0  0  0  0  0  0  0  0  0  0
    3.7620   -3.8098   -0.0000 O   0  0  0  0  0  0  0  0  0  0  0  0
    5.0399   -1.5406   -0.0000 N   0  0  0  0  0  0  0  0  0  0  0  0
    2.4244    1.4451   -0.0000 C   0  0  0  0  0  0  0  0  0  0  0  0
    0.9316   -0.0717   -0.0000 C   0  0  0  0  0  0  0  0  0  0  0  0
    3.9412   -0.0478   -0.0000 C   0  0  0  0  0  0  0  0  0  0  0  0
   -5.1594   -1.5765   -0.0000 N   0  0  0  0  0  0  0  0  0  0  0  0
   -3.8576   -3.8218   -0.0000 C   0  0  0  0  0  0  0  0  0  0  0  0
    6.3298   -2.2692   -0.0000 C   0  0  0  0  0  0  0  0  0  0  0  0
   -6.4731   -2.3169   -0.0000 C   0  0  0  0  0  0  0  0  0  0  0  0
   -5.1594   -4.5622   -0.0000 C   0  0  0  0  0  0  0  0  0  0  0  0
    7.6077   -1.4929   -0.0000 C   0  0  0  0  0  0  0  0  0  0  0  0
    6.3298   -3.7620   -0.0000 C   0  0  0  0  0  0  0  0  0  0  0  0
   -6.4850   -3.8098   -0.0000 C   0  0  0  0  0  0  0  0  0  0  0  0
   -7.7868   -1.5526   -0.0000 C   0  0  0  0  0  0  0  0  0  0  0  0
    7.5838    0.0239   -0.0000 O   0  0  0  0  0  0  0  0  0  0  0  0
    8.8975   -2.2214   -0.0000 C   0  0  0  0  0  0  0  0  0  0  0  0
    5.5535   -5.0399   -0.0000 C   0  0  0  0  0  0  0  0  0  0  0  0
   -8.5392   -2.8424   -0.0000 O   0  0  0  0  0  0  0  0  0  0  0  0
   -9.1006   -0.7882   -0.0000 C   0  0  0  0  0  0  0  0  0  0  0  0
   -7.0464   -0.2389   -0.0000 C   0  0  0  0  0  0  0  0  0  0  0  0
   10.1754   -1.4451   -0.0000 C   0  0  0  0  0  0  0  0  0  0  0  0
    4.0367   -5.0041   -0.0000 C   0  0  0  0  0  0  0  0  0  0  0  0
    6.2820   -6.3298   -0.0000 C   0  0  0  0  0  0  0  0  0  0  0  0
   11.4653   -2.1736   -0.0000 N   0  0  0  0  0  0  0  0  0  0  0  0
   10.1515    0.0717   -0.0000 C   0  0  0  0  0  0  0  0  0  0  0  0
    3.2604   -6.2820   -0.0000 C   0  0  0  0  0  0  0  0  0  0  0  0
    5.5177   -7.6077   -0.0000 C   0  0  0  0  0  0  0  0  0  0  0  0
   12.7432   -1.3973   -0.0000 C   0  0  0  0  0  0  0  0  0  0  0  0
   10.8801    1.3973   -0.0000 C   0  0  0  0  0  0  0  0  0  0  0  0
    3.9890   -7.5719   -0.0000 C   0  0  0  0  0  0  0  0  0  0  0  0
   12.7193    0.1194   -0.0000 O   0  0  0  0  0  0  0  0  0  0  0  0
   14.0330   -2.1259   -0.0000 C   0  0  0  0  0  0  0  0  0  0  0  0
   12.3849    1.4212   -0.0000 C   0  0  0  0  0  0  0  0  0  0  0  0
   10.1157    2.6991   -0.0000 C   0  0  0  0  0  0  0  0  0  0  0  0
   15.3109   -1.3496   -0.0000 N   0  0  0  0  0  0  0  0  0  0  0  0
   14.0330   -3.6187   -0.0000 C   0  0  0  0  0  0  0  0  0  0  0  0
   13.1134    2.7469   -0.0000 C   0  0  0  0  0  0  0  0  0  0  0  0
   10.8323    4.0248   -0.0000 C   0  0  0  0  0  0  0  0  0  0  0  0
   16.6008   -2.0781   -0.0000 C   0  0  0  0  0  0  0  0  0  0  0  0
   14.0091   -5.0997   -0.0000 C   0  0  0  0  0  0  0  0  0  0  0  0
   15.5259   -3.6068   -0.0000 C   0  0  0  0  0  0  0  0  0  0  0  0
   12.5163   -3.6187   -0.0000 C   0  0  0  0  0  0  0  0  0  0  0  0
   12.3371    4.0487   -0.0000 C   0  0  0  0  0  0  0  0  0  0  0  0
   16.6008   -3.5710   -0.0000 O   0  0  0  0  0  0  0  0  0  0  0  0
   17.8787   -1.3018   -0.0000 O   0  0  0  0  0  0  0  0  0  0  0  0
   13.0418    5.3505   -0.0000 C   0  0  0  0  0  0  0  0  0  0  0  0
   19.1685   -2.0303   -0.0000 C   0  0  0  0  0  0  0  0  0  0  0  0
   14.5466    5.3863   -0.0000 N   0  0  0  0  0  0  0  0  0  0  0  0
   12.2655    6.6522   -0.0000 C   0  0  0  0  0  0  0  0  0  0  0  0
   15.2632    6.7000   -0.0000 C   0  0  0  0  0  0  0  0  0  0  0  0
   12.9940    7.9660   -0.0000 C   0  0  0  0  0  0  0  0  0  0  0  0
   14.4869    8.0138   -0.0000 C   0  0  0  0  0  0  0  0  0  0  0  0
  1  2  2  0  0  0  0
  2  3  1  0  0  0  0
  2  4  1  0  0  0  0
  5  3  1  1  0  0  0
  3  6  1  0  0  0  0
  4  7  1  0  0  0  0
  4  8  1  0  0  0  0
  5  9  1  0  0  0  0
  5 10  1  0  0  0  0
  8 11  1  0  0  0  0
  9 12  2  0  0  0  0
  9 13  1  0  0  0  0
 10 14  1  0  0  0  0
 10 15  1  0  0  0  0
 10 16  1  0  0  0  0
 11 17  2  0  0  0  0
 11 18  1  0  0  0  0
 19 13  1  6  0  0  0
 17 20  1  0  0  0  0
 18 21  2  0  0  0  0
 19 22  1  0  0  0  0
 19 23  1  0  0  0  0
 20 24  2  0  0  0  0
 20 25  1  0  0  0  0
 22 26  1  1  0  0  0
 22 27  1  0  0  0  0
 23 28  1  0  0  0  0
 25 29  1  0  0  0  0
 25 30  1  0  0  0  0
 25 31  1  0  0  0  0
 27 32  1  0  0  0  0
 28 33  2  0  0  0  0
 28 34  1  0  0  0  0
 32 35  1  1  0  0  0
 32 36  1  0  0  0  0
 33 37  1  0  0  0  0
 34 38  2  0  0  0  0
 35 39  1  0  0  0  0
 36 40  1  0  0  0  0
 37 41  2  0  0  0  0
 39 42  2  0  0  0  0
 39 43  1  0  0  0  0
 40 44  2  0  0  0  0
 40 45  1  0  0  0  0
 43 46  1  1  0  0  0
 43 47  1  0  0  0  0
 44 48  1  0  0  0  0
 45 49  2  0  0  0  0
 46 50  1  0  0  0  0
 47 51  1  0  0  0  0
 47 52  1  0  0  0  0
 47 53  1  0  0  0  0
 48 54  2  0  0  0  0
 50 55  2  0  0  0  0
 50 56  1  0  0  0  0
 54 57  1  0  0  0  0
 56 58  1  0  0  0  0
 57 59  2  0  0  0  0
 57 60  1  0  0  0  0
 59 61  1  0  0  0  0
 60 62  2  0  0  0  0
 61 63  2  0  0  0  0
  6  7  1  0  0  0  0
 21 24  1  0  0  0  0
 38 41  1  0  0  0  0
 49 54  1  0  0  0  0
 62 63  1  0  0  0  0
M  END
>  <MolRegNo>
498610

>  <m>
=

>  <Value>
66

>  <Unit>
nM

>  <Type>
Ki

>  <pValue>
7.18

>  <Ligand Efficiency>
0

>  <Binding Efficiency>
0

>  <Surface Efficiency>
0

>  <Assay Index>
412148

>  <Assay Category>


>  <Assay Organism>


>  <Target ID>
17045

>  <Target Name>
Cytochrome P450 3A4

>  <Target Organism>
Homo sapiens

>  <Target Description>
Target is a single protein chain

>  <Sequence Accession>
P08684

>  <Reference>
J Med Chem 52 (8), 2571-2586 (2009)

>  <Pubmed ID>
19323562

>  <DOI>
10.1021/jm900044w

$$$$
566693
Actelion Java MolfileCreator 1.0

 28 32  0  0  0  0  0  0  0  0999 V2000
    0.0000   -0.0000   -0.0000 Si  0  0  0  0  0  0  0  0  0  0  0  0
   -1.3001   -0.7395   -0.0000 O   0  0  0  0  0  0  0  0  0  0  0  0
    1.2762    0.7753   -0.0000 C   0  0  0  0  0  0  0  0  0  0  0  0
    0.7395   -1.2762   -0.0000 C   0  0  0  0  0  0  0  0  0  0  0  0
   -0.7633    1.3001   -0.0000 C   0  0  0  0  0  0  0  0  0  0  0  0
   -1.3120   -2.2184   -0.0000 C   0  0  0  0  0  0  0  0  0  0  0  0
    2.5524    1.5386   -0.0000 C   0  0  0  0  0  0  0  0  0  0  0  0
    0.5009    2.0753   -0.0000 C   0  0  0  0  0  0  0  0  0  0  0  0
    2.0276   -0.5009   -0.0000 C   0  0  0  0  0  0  0  0  0  0  0  0
   -0.0239   -2.9460   -0.0000 C   0  0  0  0  0  0  0  0  0  0  0  0
   -2.6240   -2.9579   -0.0000 C   0  0  0  0  0  0  0  0  0  0  0  0
   -0.0119   -4.4011   -0.0000 C   0  0  0  0  0  0  0  0  0  0  0  0
   -3.9359   -2.2065   -0.0000 O   0  0  0  0  0  0  0  0  0  0  0  0
   -2.6240   -4.4369   -0.0000 C   0  0  0  0  0  0  0  0  0  0  0  0
   -1.3358   -5.1525   -0.0000 C   0  0  0  0  0  0  0  0  0  0  0  0
    0.8707   -5.5938   -0.0000 C   0  0  0  0  0  0  0  0  0  0  0  0
   -3.9240   -5.1764   -0.0000 C   0  0  0  0  0  0  0  0  0  0  0  0
   -1.3358   -6.6434   -0.0000 N   0  0  0  0  0  0  0  0  0  0  0  0
    0.0954   -7.0966   -0.0000 C   0  0  0  0  0  0  0  0  0  0  0  0
   -3.9359   -6.6672   -0.0000 C   0  0  0  0  0  0  0  0  0  0  0  0
   -5.2360   -4.4249   -0.0000 C   0  0  0  0  0  0  0  0  0  0  0  0
   -2.6478   -7.3829   -0.0000 C   0  0  0  0  0  0  0  0  0  0  0  0
   -5.2479   -7.4067   -0.0000 C   0  0  0  0  0  0  0  0  0  0  0  0
   -6.5360   -5.1644   -0.0000 C   0  0  0  0  0  0  0  0  0  0  0  0
   -6.5599   -6.6434   -0.0000 C   0  0  0  0  0  0  0  0  0  0  0  0
   -7.9673   -4.6873   -0.0000 O   0  0  0  0  0  0  0  0  0  0  0  0
   -7.9911   -7.0966   -0.0000 O   0  0  0  0  0  0  0  0  0  0  0  0
   -8.8618   -5.8800   -0.0000 C   0  0  0  0  0  0  0  0  0  0  0  0
  1  2  1  0  0  0  0
  1  3  1  0  0  0  0
  1  4  1  0  0  0  0
  1  5  1  0  0  0  0
  6  2  1  6  0  0  0
  3  7  1  0  0  0  0
  3  8  1  0  0  0  0
  3  9  1  0  0  0  0
  6 10  1  0  0  0  0
  6 11  1  0  0  0  0
 10 12  2  0  0  0  0
 11 13  1  1  0  0  0
 11 14  1  0  0  0  0
 12 15  1  0  0  0  0
 12 16  1  0  0  0  0
 14 17  1  1  0  0  0
 15 18  1  6  0  0  0
 16 19  1  0  0  0  0
 17 20  2  0  0  0  0
 17 21  1  0  0  0  0
 18 22  1  0  0  0  0
 20 23  1  0  0  0  0
 21 24  2  0  0  0  0
 23 25  2  0  0  0  0
 24 26  1  0  0  0  0
 25 27  1  0  0  0  0
 26 28  1  0  0  0  0
 14 15  1  0  0  0  0
 18 19  1  0  0  0  0
 20 22  1  0  0  0  0
 24 25  1  0  0  0  0
 27 28  1  0  0  0  0
M  END
>  <MolRegNo>
566693

>  <m>
=

>  <Value>
260

>  <Unit>
nM

>  <Type>
Ki

>  <pValue>
6.58

>  <Ligand Efficiency>
0

>  <Binding Efficiency>
0

>  <Surface Efficiency>
0

>  <Assay Index>
416935

>  <Assay Category>


>  <Assay Organism>
Homo sapiens

>  <Target ID>
17045

>  <Target Name>
Cytochrome P450 3A4

>  <Target Organism>
Homo sapiens

>  <Target Description>
Target is a single protein chain

>  <Sequence Accession>
P08684

>  <Reference>
Bioorg Med Chem Lett 19 (12), 3233-3237 (2009)

>  <Pubmed ID>
19428250

>  <DOI>
10.1016/j.bmcl.2009.04.086

$$$$
563127
Actelion Java MolfileCreator 1.0

 31 35  0  0  0  0  0  0  0  0999 V2000
    0.0000   -0.0000   -0.0000 Si  0  0  0  0  0  0  0  0  0  0  0  0
   -1.3000   -0.7395   -0.0000 O   0  0  0  0  0  0  0  0  0  0  0  0
    1.2761    0.7752   -0.0000 C   0  0  0  0  0  0  0  0  0  0  0  0
    0.7395   -1.2761   -0.0000 C   0  0  0  0  0  0  0  0  0  0  0  0
   -0.7633    1.3000   -0.0000 C   0  0  0  0  0  0  0  0  0  0  0  0
   -1.3119   -2.2184   -0.0000 C   0  0  0  0  0  0  0  0  0  0  0  0
    2.5523    1.5385   -0.0000 C   0  0  0  0  0  0  0  0  0  0  0  0
    0.5009    2.0752   -0.0000 C   0  0  0  0  0  0  0  0  0  0  0  0
    2.0275   -0.5009   -0.0000 C   0  0  0  0  0  0  0  0  0  0  0  0
   -0.0239   -2.9459   -0.0000 C   0  0  0  0  0  0  0  0  0  0  0  0
   -2.6239   -2.9578   -0.0000 C   0  0  0  0  0  0  0  0  0  0  0  0
   -0.0119   -4.4009   -0.0000 C   0  0  0  0  0  0  0  0  0  0  0  0
   -3.9358   -2.2064   -0.0000 O   0  0  0  0  0  0  0  0  0  0  0  0
   -2.6239   -4.4367   -0.0000 C   0  0  0  0  0  0  0  0  0  0  0  0
   -1.3358   -5.1523   -0.0000 C   0  0  0  0  0  0  0  0  0  0  0  0
    0.8706   -5.5936   -0.0000 C   0  0  0  0  0  0  0  0  0  0  0  0
   -3.9596   -0.7037   -0.0000 C   0  0  0  0  0  0  0  0  0  0  0  0
   -3.9239   -5.1762   -0.0000 C   0  0  0  0  0  0  0  0  0  0  0  0
   -1.3358   -6.6431   -0.0000 N   0  0  0  0  0  0  0  0  0  0  0  0
    0.0954   -7.0963   -0.0000 C   0  0  0  0  0  0  0  0  0  0  0  0
   -5.2716    0.0477   -0.0000 O   0  0  0  0  0  0  0  0  0  0  0  0
   -2.6835    0.0596   -0.0000 C   0  0  0  0  0  0  0  0  0  0  0  0
   -3.9358   -6.6670   -0.0000 C   0  0  0  0  0  0  0  0  0  0  0  0
   -5.2358   -4.4248   -0.0000 C   0  0  0  0  0  0  0  0  0  0  0  0
   -2.6477   -7.3826   -0.0000 C   0  0  0  0  0  0  0  0  0  0  0  0
   -5.2477   -7.4064   -0.0000 C   0  0  0  0  0  0  0  0  0  0  0  0
   -6.5358   -5.1642   -0.0000 C   0  0  0  0  0  0  0  0  0  0  0  0
   -6.5596   -6.6431   -0.0000 C   0  0  0  0  0  0  0  0  0  0  0  0
   -7.9670   -4.6872   -0.0000 O   0  0  0  0  0  0  0  0  0  0  0  0
   -7.9908   -7.0963   -0.0000 O   0  0  0  0  0  0  0  0  0  0  0  0
   -8.8615   -5.8798   -0.0000 C   0  0  0  0  0  0  0  0  0  0  0  0
  1  2  1  0  0  0  0
  1  3  1  0  0  0  0
  1  4  1  0  0  0  0
  1  5  1  0  0  0  0
  6  2  1  6  0  0  0
  3  7  1  0  0  0  0
  3  8  1  0  0  0  0
  3  9  1  0  0  0  0
  6 10  1  0  0  0  0
  6 11  1  0  0  0  0
 10 12  2  0  0  0  0
 11 13  1  1  0  0  0
 11 14  1  0  0  0  0
 12 15  1  0  0  0  0
 12 16  1  0  0  0  0
 13 17  1  0  0  0  0
 14 18  1  1  0  0  0
 15 19  1  6  0  0  0
 16 20  1  0  0  0  0
 17 21  2  0  0  0  0
 17 22  1  0  0  0  0
 18 23  2  0  0  0  0
 18 24  1  0  0  0  0
 19 25  1  0  0  0  0
 23 26  1  0  0  0  0
 24 27  2  0  0  0  0
 26 28  2  0  0  0  0
 27 29  1  0  0  0  0
 28 30  1  0  0  0  0
 29 31  1  0  0  0  0
 14 15  1  0  0  0  0
 19 20  1  0  0  0  0
 23 25  1  0  0  0  0
 27 28  1  0  0  0  0
 30 31  1  0  0  0  0
M  END
>  <MolRegNo>
563127

>  <m>
=

>  <Value>
210

>  <Unit>
nM

>  <Type>
Ki

>  <pValue>
6.68

>  <Ligand Efficiency>
0

>  <Binding Efficiency>
0

>  <Surface Efficiency>
0

>  <Assay Index>
416935

>  <Assay Category>


>  <Assay Organism>
Homo sapiens

>  <Target ID>
17045

>  <Target Name>
Cytochrome P450 3A4

>  <Target Organism>
Homo sapiens

>  <Target Description>
Target is a single protein chain

>  <Sequence Accession>
P08684

>  <Reference>
Bioorg Med Chem Lett 19 (12), 3233-3237 (2009)

>  <Pubmed ID>
19428250

>  <DOI>
10.1016/j.bmcl.2009.04.086

$$$$
421462
Actelion Java MolfileCreator 1.0

 24 28  0  0  0  0  0  0  0  0999 V2000
    0.0000   -0.0000   -0.0000 O   0  0  0  0  0  0  0  0  0  0  0  0
   -1.3176   -0.7351   -0.0000 C   0  0  0  0  0  0  0  0  0  0  0  0
   -1.3314   -2.2191   -0.0000 O   0  0  0  0  0  0  0  0  0  0  0  0
   -2.6213    0.0277   -0.0000 C   0  0  0  0  0  0  0  0  0  0  0  0
   -0.0555   -2.9541   -0.0000 C   0  0  0  0  0  0  0  0  0  0  0  0
    1.2343   -2.2052   -0.0000 C   0  0  0  0  0  0  0  0  0  0  0  0
   -0.0693   -4.4381   -0.0000 C   0  0  0  0  0  0  0  0  0  0  0  0
    1.2343   -0.6935   -0.0000 O   0  0  0  0  0  0  0  0  0  0  0  0
    2.5103   -2.9402   -0.0000 C   0  0  0  0  0  0  0  0  0  0  0  0
   -1.3592   -5.1732   -0.0000 C   0  0  0  0  0  0  0  0  0  0  0  0
    1.2066   -5.1732   -0.0000 C   0  0  0  0  0  0  0  0  0  0  0  0
    2.4826   -4.4242   -0.0000 C   0  0  0  0  0  0  0  0  0  0  0  0
   -1.3730   -6.6572   -0.0000 C   0  0  0  0  0  0  0  0  0  0  0  0
   -2.6629   -4.4104   -0.0000 C   0  0  0  0  0  0  0  0  0  0  0  0
    1.1927   -6.6572   -0.0000 N   0  0  0  0  0  0  0  0  0  0  0  0
    3.5644   -5.4089   -0.0000 C   0  0  0  0  0  0  0  0  0  0  0  0
   -2.6767   -7.3784   -0.0000 C   0  0  0  0  0  0  0  0  0  0  0  0
   -0.0971   -7.3784   -0.0000 C   0  0  0  0  0  0  0  0  0  0  0  0
   -3.9666   -5.1316   -0.0000 C   0  0  0  0  0  0  0  0  0  0  0  0
    2.9402   -6.7681   -0.0000 C   0  0  0  0  0  0  0  0  0  0  0  0
   -3.9804   -6.6294   -0.0000 C   0  0  0  0  0  0  0  0  0  0  0  0
   -5.4089   -4.6600   -0.0000 O   0  0  0  0  0  0  0  0  0  0  0  0
   -5.4228   -7.0732   -0.0000 O   0  0  0  0  0  0  0  0  0  0  0  0
   -6.3104   -5.8528   -0.0000 C   0  0  0  0  0  0  0  0  0  0  0  0
  1  2  2  0  0  0  0
  2  3  1  0  0  0  0
  2  4  1  0  0  0  0
  5  3  1  1  0  0  0
  5  6  1  0  0  0  0
  5  7  1  0  0  0  0
  6  8  1  6  0  0  0
  6  9  1  0  0  0  0
  7 10  1  1  0  0  0
  7 11  1  0  0  0  0
  9 12  2  0  0  0  0
 10 13  2  0  0  0  0
 10 14  1  0  0  0  0
 11 15  1  6  0  0  0
 12 16  1  0  0  0  0
 13 17  1  0  0  0  0
 13 18  1  0  0  0  0
 14 19  2  0  0  0  0
 15 20  1  0  0  0  0
 17 21  2  0  0  0  0
 19 22  1  0  0  0  0
 21 23  1  0  0  0  0
 22 24  1  0  0  0  0
 11 12  1  0  0  0  0
 15 18  1  0  0  0  0
 16 20  1  0  0  0  0
 19 21  1  0  0  0  0
 23 24  1  0  0  0  0
M  END
>  <MolRegNo>
421462

>  <m>
=

>  <Value>
7600

>  <Unit>
nM

>  <Type>
Ki

>  <pValue>
5.12

>  <Ligand Efficiency>
0

>  <Binding Efficiency>
0

>  <Surface Efficiency>
0

>  <Assay Index>
416935

>  <Assay Category>


>  <Assay Organism>
Homo sapiens

>  <Target ID>
17045

>  <Target Name>
Cytochrome P450 3A4

>  <Target Organism>
Homo sapiens

>  <Target Description>
Target is a single protein chain

>  <Sequence Accession>
P08684

>  <Reference>
Bioorg Med Chem Lett 19 (12), 3233-3237 (2009)

>  <Pubmed ID>
19428250

>  <DOI>
10.1016/j.bmcl.2009.04.086

$$$$
473166
Actelion Java MolfileCreator 1.0

 27 31  0  0  0  0  0  0  0  0999 V2000
    0.0000   -0.0000   -0.0000 O   0  0  0  0  0  0  0  0  0  0  0  0
   -1.2990    0.7794   -0.0000 C   0  0  0  0  0  0  0  0  0  0  0  0
   -2.6098    0.0590   -0.0000 O   0  0  0  0  0  0  0  0  0  0  0  0
   -1.2990    2.2909   -0.0000 C   0  0  0  0  0  0  0  0  0  0  0  0
   -2.6334   -1.4171   -0.0000 C   0  0  0  0  0  0  0  0  0  0  0  0
   -1.3462   -2.1610   -0.0000 C   0  0  0  0  0  0  0  0  0  0  0  0
   -3.9442   -2.1374   -0.0000 C   0  0  0  0  0  0  0  0  0  0  0  0
   -1.3698   -3.6489   -0.0000 C   0  0  0  0  0  0  0  0  0  0  0  0
   -5.2431   -1.3698   -0.0000 O   0  0  0  0  0  0  0  0  0  0  0  0
   -3.9560   -3.6253   -0.0000 C   0  0  0  0  0  0  0  0  0  0  0  0
   -2.6688   -4.3693   -0.0000 C   0  0  0  0  0  0  0  0  0  0  0  0
   -0.2952   -4.6291   -0.0000 C   0  0  0  0  0  0  0  0  0  0  0  0
   -5.2431    0.1299   -0.0000 C   0  0  0  0  0  0  0  0  0  0  0  0
   -5.2431   -4.3693   -0.0000 C   0  0  0  0  0  0  0  0  0  0  0  0
   -2.6806   -5.8454   -0.0000 N   0  0  0  0  0  0  0  0  0  0  0  0
   -0.9211   -5.9635   -0.0000 C   0  0  0  0  0  0  0  0  0  0  0  0
   -3.9560    0.8857   -0.0000 O   0  0  0  0  0  0  0  0  0  0  0  0
   -6.5539    0.8975   -0.0000 C   0  0  0  0  0  0  0  0  0  0  0  0
   -5.2550   -5.8454   -0.0000 C   0  0  0  0  0  0  0  0  0  0  0  0
   -6.5421   -3.6017   -0.0000 C   0  0  0  0  0  0  0  0  0  0  0  0
   -3.9914   -6.5657   -0.0000 C   0  0  0  0  0  0  0  0  0  0  0  0
   -6.5539   -6.5657   -0.0000 C   0  0  0  0  0  0  0  0  0  0  0  0
   -7.8411   -4.3339   -0.0000 C   0  0  0  0  0  0  0  0  0  0  0  0
   -7.8529   -5.8218   -0.0000 C   0  0  0  0  0  0  0  0  0  0  0  0
   -9.2700   -3.8615   -0.0000 O   0  0  0  0  0  0  0  0  0  0  0  0
   -9.2818   -6.2705   -0.0000 O   0  0  0  0  0  0  0  0  0  0  0  0
  -10.1675   -5.0660   -0.0000 C   0  0  0  0  0  0  0  0  0  0  0  0
  1  2  2  0  0  0  0
  2  3  1  0  0  0  0
  2  4  1  0  0  0  0
  5  3  1  6  0  0  0
  5  6  1  0  0  0  0
  5  7  1  0  0  0  0
  6  8  2  0  0  0  0
  7  9  1  1  0  0  0
  7 10  1  0  0  0  0
  8 11  1  0  0  0  0
  8 12  1  0  0  0  0
  9 13  1  0  0  0  0
 10 14  1  1  0  0  0
 11 15  1  6  0  0  0
 12 16  1  0  0  0  0
 13 17  2  0  0  0  0
 13 18  1  0  0  0  0
 14 19  2  0  0  0  0
 14 20  1  0  0  0  0
 15 21  1  0  0  0  0
 19 22  1  0  0  0  0
 20 23  2  0  0  0  0
 22 24  2  0  0  0  0
 23 25  1  0  0  0  0
 24 26  1  0  0  0  0
 25 27  1  0  0  0  0
 10 11  1  0  0  0  0
 15 16  1  0  0  0  0
 19 21  1  0  0  0  0
 23 24  1  0  0  0  0
 26 27  1  0  0  0  0
M  END
>  <MolRegNo>
473166

>  <m>
=

>  <Value>
11000

>  <Unit>
nM

>  <Type>
Ki

>  <pValue>
4.96

>  <Ligand Efficiency>
0

>  <Binding Efficiency>
0

>  <Surface Efficiency>
0

>  <Assay Index>
416935

>  <Assay Category>


>  <Assay Organism>
Homo sapiens

>  <Target ID>
17045

>  <Target Name>
Cytochrome P450 3A4

>  <Target Organism>
Homo sapiens

>  <Target Description>
Target is a single protein chain

>  <Sequence Accession>
P08684

>  <Reference>
Bioorg Med Chem Lett 19 (12), 3233-3237 (2009)

>  <Pubmed ID>
19428250

>  <DOI>
10.1016/j.bmcl.2009.04.086

$$$$
162058
Actelion Java MolfileCreator 1.0

 22 25  0  0  0  0  0  0  0  0999 V2000
    0.0000   -0.0000   -0.0000 O   0  0  0  0  0  0  0  0  0  0  0  0
    1.2974   -0.7380   -0.0000 C   0  0  0  0  0  0  0  0  0  0  0  0
    1.2855   -2.2258   -0.0000 N   0  0  0  0  0  0  0  0  0  0  0  0
    2.5829    0.0238   -0.0000 C   0  0  0  0  0  0  0  0  0  0  0  0
    2.5829   -2.9519   -0.0000 C   0  0  0  0  0  0  0  0  0  0  0  0
    2.5710    1.5474   -0.0000 C   0  0  0  0  0  0  0  0  0  0  0  0
    3.8803   -0.7142   -0.0000 C   0  0  0  0  0  0  0  0  0  0  0  0
    3.8803   -2.1901   -0.0000 C   0  0  0  0  0  0  0  0  0  0  0  0
    2.5710   -4.4397   -0.0000 C   0  0  0  0  0  0  0  0  0  0  0  0
    1.2498    2.3091   -0.0000 O   0  0  0  0  0  0  0  0  0  0  0  0
    3.8684    2.3210   -0.0000 C   0  0  0  0  0  0  0  0  0  0  0  0
    5.1777    0.0476   -0.0000 C   0  0  0  0  0  0  0  0  0  0  0  0
    5.1658   -2.9281   -0.0000 C   0  0  0  0  0  0  0  0  0  0  0  0
    1.2498   -5.1777   -0.0000 O   0  0  0  0  0  0  0  0  0  0  0  0
    3.8565   -5.1896   -0.0000 C   0  0  0  0  0  0  0  0  0  0  0  0
    4.1660    3.8089   -0.0000 O   0  0  0  0  0  0  0  0  0  0  0  0
    5.1539    1.5831   -0.0000 C   0  0  0  0  0  0  0  0  0  0  0  0
    5.1420   -4.4278   -0.0000 C   0  0  0  0  0  0  0  0  0  0  0  0
    3.8446   -6.6894   -0.0000 O   0  0  0  0  0  0  0  0  0  0  0  0
    5.6538    3.9755   -0.0000 C   0  0  0  0  0  0  0  0  0  0  0  0
    6.2609    2.6067   -0.0000 O   0  0  0  0  0  0  0  0  0  0  0  0
    6.4394   -5.1777   -0.0000 O   0  0  0  0  0  0  0  0  0  0  0  0
  1  2  2  0  0  0  0
  2  3  1  0  0  0  0
  2  4  1  0  0  0  0
  5  3  1  6  0  0  0
  4  6  2  0  0  0  0
  4  7  1  0  0  0  0
  5  8  1  0  0  0  0
  5  9  1  0  0  0  0
  6 10  1  0  0  0  0
  6 11  1  0  0  0  0
  7 12  2  0  0  0  0
  8 13  2  0  0  0  0
  9 14  1  1  0  0  0
  9 15  1  0  0  0  0
 11 16  1  0  0  0  0
 11 17  2  0  0  0  0
 13 18  1  0  0  0  0
 15 19  1  1  0  0  0
 16 20  1  0  0  0  0
 17 21  1  0  0  0  0
 18 22  1  6  0  0  0
  7  8  1  0  0  0  0
 12 17  1  0  0  0  0
 15 18  1  0  0  0  0
 20 21  1  0  0  0  0
M  END
>  <MolRegNo>
162058

>  <m>
=

>  <Value>
630

>  <Unit>
nM

>  <Type>
Ki

>  <pValue>
6.2

>  <Ligand Efficiency>
0

>  <Binding Efficiency>
0

>  <Surface Efficiency>
0

>  <Assay Index>
416935

>  <Assay Category>


>  <Assay Organism>
Homo sapiens

>  <Target ID>
17045

>  <Target Name>
Cytochrome P450 3A4

>  <Target Organism>
Homo sapiens

>  <Target Description>
Target is a single protein chain

>  <Sequence Accession>
P08684

>  <Reference>
Bioorg Med Chem Lett 19 (12), 3233-3237 (2009)

>  <Pubmed ID>
19428250

>  <DOI>
10.1016/j.bmcl.2009.04.086

$$$$
571985
Actelion Java MolfileCreator 1.0

 38 41  0  0  0  0  0  0  0  0999 V2000
    0.0000   -0.0000   -0.0000 Si  0  0  0  0  0  0  0  0  0  0  0  0
   -0.7716   -1.2821   -0.0000 O   0  0  0  0  0  0  0  0  0  0  0  0
    1.4839   -0.0000   -0.0000 C   0  0  0  0  0  0  0  0  0  0  0  0
    0.7241    1.3177   -0.0000 C   0  0  0  0  0  0  0  0  0  0  0  0
   -1.3177    0.7597   -0.0000 C   0  0  0  0  0  0  0  0  0  0  0  0
   -2.2792   -1.2583   -0.0000 C   0  0  0  0  0  0  0  0  0  0  0  0
    2.9677    0.0119   -0.0000 C   0  0  0  0  0  0  0  0  0  0  0  0
    1.4720   -1.4839   -0.0000 C   0  0  0  0  0  0  0  0  0  0  0  0
    1.4839    1.5076   -0.0000 C   0  0  0  0  0  0  0  0  0  0  0  0
   -3.0271    0.0594   -0.0000 C   0  0  0  0  0  0  0  0  0  0  0  0
   -2.5879    1.4957   -0.0000 O   0  0  0  0  0  0  0  0  0  0  0  0
   -4.5347    0.0594   -0.0000 C   0  0  0  0  0  0  0  0  0  0  0  0
   -3.8106    2.3861   -0.0000 C   0  0  0  0  0  0  0  0  0  0  0  0
   -5.0214    1.4957   -0.0000 O   0  0  0  0  0  0  0  0  0  0  0  0
   -5.8405   -0.6766   -0.0000 C   0  0  0  0  0  0  0  0  0  0  0  0
   -4.8908    3.4663   -0.0000 C   0  0  0  0  0  0  0  0  0  0  0  0
   -2.7659    3.4663   -0.0000 C   0  0  0  0  0  0  0  0  0  0  0  0
   -7.1463    0.0831   -0.0000 O   0  0  0  0  0  0  0  0  0  0  0  0
   -5.8524   -2.1605   -0.0000 C   0  0  0  0  0  0  0  0  0  0  0  0
   -7.1582   -2.8965   -0.0000 C   0  0  0  0  0  0  0  0  0  0  0  0
   -4.5703   -2.8965   -0.0000 C   0  0  0  0  0  0  0  0  0  0  0  0
   -8.4640   -2.1368   -0.0000 C   0  0  0  0  0  0  0  0  0  0  0  0
   -7.1700   -4.3922   -0.0000 C   0  0  0  0  0  0  0  0  0  0  0  0
   -4.5822   -4.3804   -0.0000 N   0  0  0  0  0  0  0  0  0  0  0  0
   -9.7698   -2.8728   -0.0000 C   0  0  0  0  0  0  0  0  0  0  0  0
   -8.4877   -5.1282   -0.0000 C   0  0  0  0  0  0  0  0  0  0  0  0
   -3.3001   -5.1164   -0.0000 C   0  0  0  0  0  0  0  0  0  0  0  0
  -11.2062   -2.3979   -0.0000 O   0  0  0  0  0  0  0  0  0  0  0  0
   -9.7816   -4.3685   -0.0000 C   0  0  0  0  0  0  0  0  0  0  0  0
   -3.3120   -6.6002   -0.0000 O   0  0  0  0  0  0  0  0  0  0  0  0
   -2.0181   -4.3566   -0.0000 C   0  0  0  0  0  0  0  0  0  0  0  0
  -12.1083   -3.5969   -0.0000 C   0  0  0  0  0  0  0  0  0  0  0  0
  -11.2299   -4.8196   -0.0000 O   0  0  0  0  0  0  0  0  0  0  0  0
   -2.0418   -2.8490   -0.0000 C   0  0  0  0  0  0  0  0  0  0  0  0
   -0.7360   -5.0926   -0.0000 C   0  0  0  0  0  0  0  0  0  0  0  0
   -0.7716   -2.0774   -0.0000 C   0  0  0  0  0  0  0  0  0  0  0  0
    0.5461   -4.3329   -0.0000 C   0  0  0  0  0  0  0  0  0  0  0  0
    0.5223   -2.8134   -0.0000 C   0  0  0  0  0  0  0  0  0  0  0  0
  1  2  1  0  0  0  0
  1  3  1  0  0  0  0
  1  4  1  0  0  0  0
  1  5  1  0  0  0  0
  2  6  1  0  0  0  0
  3  7  1  0  0  0  0
  3  8  1  0  0  0  0
  3  9  1  0  0  0  0
 10  6  1  1  0  0  0
 10 11  1  0  0  0  0
 10 12  1  0  0  0  0
 11 13  1  0  0  0  0
 12 14  1  6  0  0  0
 12 15  1  0  0  0  0
 13 16  1  0  0  0  0
 13 17  1  0  0  0  0
 15 18  1  1  0  0  0
 15 19  1  0  0  0  0
 19 20  1  0  0  0  0
 19 21  1  1  0  0  0
 20 22  2  0  0  0  0
 20 23  1  0  0  0  0
 21 24  1  0  0  0  0
 22 25  1  0  0  0  0
 23 26  2  0  0  0  0
 24 27  1  0  0  0  0
 25 28  1  0  0  0  0
 25 29  2  0  0  0  0
 27 30  2  0  0  0  0
 27 31  1  0  0  0  0
 28 32  1  0  0  0  0
 29 33  1  0  0  0  0
 31 34  2  0  0  0  0
 31 35  1  0  0  0  0
 34 36  1  0  0  0  0
 35 37  2  0  0  0  0
 36 38  2  0  0  0  0
 13 14  1  0  0  0  0
 26 29  1  0  0  0  0
 32 33  1  0  0  0  0
 37 38  1  0  0  0  0
M  END
>  <MolRegNo>
571985

>  <m>
=

>  <Value>
170

>  <Unit>
nM

>  <Type>
Ki

>  <pValue>
6.77

>  <Ligand Efficiency>
0

>  <Binding Efficiency>
0

>  <Surface Efficiency>
0

>  <Assay Index>
434235

>  <Assay Category>


>  <Assay Organism>
Homo sapiens

>  <Target ID>
17045

>  <Target Name>
Cytochrome P450 3A4

>  <Target Organism>
Homo sapiens

>  <Target Description>
Target is a single protein chain

>  <Sequence Accession>
P08684

>  <Reference>
Bioorg Med Chem Lett 19 (19), 5607-5612 (2009)

>  <Pubmed ID>
19713107

>  <DOI>
10.1016/j.bmcl.2009.08.032

$$$$
571878
Actelion Java MolfileCreator 1.0

 41 44  0  0  0  0  0  0  0  0999 V2000
    0.0000   -0.0000   -0.0000 Si  0  0  0  0  0  0  0  0  0  0  0  0
   -0.7711   -1.2812   -0.0000 O   0  0  0  0  0  0  0  0  0  0  0  0
    1.4829   -0.0000   -0.0000 C   0  0  0  0  0  0  0  0  0  0  0  0
    0.7236    1.3168   -0.0000 C   0  0  0  0  0  0  0  0  0  0  0  0
   -1.3168    0.7592   -0.0000 C   0  0  0  0  0  0  0  0  0  0  0  0
   -2.2777   -1.2575   -0.0000 C   0  0  0  0  0  0  0  0  0  0  0  0
    2.9657    0.0119   -0.0000 C   0  0  0  0  0  0  0  0  0  0  0  0
    1.4710   -1.4829   -0.0000 C   0  0  0  0  0  0  0  0  0  0  0  0
    1.4829    1.5066   -0.0000 C   0  0  0  0  0  0  0  0  0  0  0  0
   -3.0251    0.0593   -0.0000 C   0  0  0  0  0  0  0  0  0  0  0  0
   -2.5861    1.4947   -0.0000 O   0  0  0  0  0  0  0  0  0  0  0  0
   -4.5317    0.0593   -0.0000 C   0  0  0  0  0  0  0  0  0  0  0  0
   -3.8080    2.3845   -0.0000 C   0  0  0  0  0  0  0  0  0  0  0  0
   -5.0180    1.4947   -0.0000 O   0  0  0  0  0  0  0  0  0  0  0  0
   -5.8366   -0.6762   -0.0000 C   0  0  0  0  0  0  0  0  0  0  0  0
   -4.8875    3.4640   -0.0000 C   0  0  0  0  0  0  0  0  0  0  0  0
   -2.7641    3.4640   -0.0000 C   0  0  0  0  0  0  0  0  0  0  0  0
   -7.1415    0.0830   -0.0000 O   0  0  0  0  0  0  0  0  0  0  0  0
   -5.8484   -2.1591   -0.0000 C   0  0  0  0  0  0  0  0  0  0  0  0
   -7.1534    1.5896   -0.0000 C   0  0  0  0  0  0  0  0  0  0  0  0
   -7.1534   -2.8946   -0.0000 C   0  0  0  0  0  0  0  0  0  0  0  0
   -4.5672   -2.8946   -0.0000 C   0  0  0  0  0  0  0  0  0  0  0  0
   -8.4583    2.3489   -0.0000 O   0  0  0  0  0  0  0  0  0  0  0  0
   -8.4583   -2.1353   -0.0000 C   0  0  0  0  0  0  0  0  0  0  0  0
   -7.1652   -4.3893   -0.0000 C   0  0  0  0  0  0  0  0  0  0  0  0
   -4.5791   -4.3774   -0.0000 N   0  0  0  0  0  0  0  0  0  0  0  0
   -8.4702    3.8555   -0.0000 C   0  0  0  0  0  0  0  0  0  0  0  0
   -9.7632   -2.8708   -0.0000 C   0  0  0  0  0  0  0  0  0  0  0  0
   -8.4820   -5.1248   -0.0000 C   0  0  0  0  0  0  0  0  0  0  0  0
   -3.2979   -5.1129   -0.0000 C   0  0  0  0  0  0  0  0  0  0  0  0
  -11.2105   -2.3963   -0.0000 O   0  0  0  0  0  0  0  0  0  0  0  0
   -9.7751   -4.3656   -0.0000 C   0  0  0  0  0  0  0  0  0  0  0  0
   -3.3098   -6.5958   -0.0000 O   0  0  0  0  0  0  0  0  0  0  0  0
   -2.0167   -4.3537   -0.0000 C   0  0  0  0  0  0  0  0  0  0  0  0
  -12.1121   -3.5945   -0.0000 C   0  0  0  0  0  0  0  0  0  0  0  0
  -11.2224   -4.8164   -0.0000 O   0  0  0  0  0  0  0  0  0  0  0  0
   -2.0404   -2.8471   -0.0000 C   0  0  0  0  0  0  0  0  0  0  0  0
   -0.7355   -5.0892   -0.0000 C   0  0  0  0  0  0  0  0  0  0  0  0
   -0.7711   -2.0760   -0.0000 C   0  0  0  0  0  0  0  0  0  0  0  0
    0.5457   -4.3300   -0.0000 C   0  0  0  0  0  0  0  0  0  0  0  0
    0.5220   -2.8115   -0.0000 C   0  0  0  0  0  0  0  0  0  0  0  0
  1  2  1  0  0  0  0
  1  3  1  0  0  0  0
  1  4  1  0  0  0  0
  1  5  1  0  0  0  0
  2  6  1  0  0  0  0
  3  7  1  0  0  0  0
  3  8  1  0  0  0  0
  3  9  1  0  0  0  0
 10  6  1  1  0  0  0
 10 11  1  0  0  0  0
 10 12  1  0  0  0  0
 11 13  1  0  0  0  0
 12 14  1  6  0  0  0
 12 15  1  0  0  0  0
 13 16  1  0  0  0  0
 13 17  1  0  0  0  0
 15 18  1  1  0  0  0
 15 19  1  0  0  0  0
 18 20  1  0  0  0  0
 19 21  1  0  0  0  0
 19 22  1  1  0  0  0
 20 23  1  0  0  0  0
 21 24  2  0  0  0  0
 21 25  1  0  0  0  0
 22 26  1  0  0  0  0
 23 27  1  0  0  0  0
 24 28  1  0  0  0  0
 25 29  2  0  0  0  0
 26 30  1  0  0  0  0
 28 31  1  0  0  0  0
 28 32  2  0  0  0  0
 30 33  2  0  0  0  0
 30 34  1  0  0  0  0
 31 35  1  0  0  0  0
 32 36  1  0  0  0  0
 34 37  2  0  0  0  0
 34 38  1  0  0  0  0
 37 39  1  0  0  0  0
 38 40  2  0  0  0  0
 39 41  2  0  0  0  0
 13 14  1  0  0  0  0
 29 32  1  0  0  0  0
 35 36  1  0  0  0  0
 40 41  1  0  0  0  0
M  END
>  <MolRegNo>
571878

>  <m>
=

>  <Value>
30

>  <Unit>
nM

>  <Type>
Ki

>  <pValue>
7.52

>  <Ligand Efficiency>
0

>  <Binding Efficiency>
0

>  <Surface Efficiency>
0

>  <Assay Index>
434235

>  <Assay Category>


>  <Assay Organism>
Homo sapiens

>  <Target ID>
17045

>  <Target Name>
Cytochrome P450 3A4

>  <Target Organism>
Homo sapiens

>  <Target Description>
Target is a single protein chain

>  <Sequence Accession>
P08684

>  <Reference>
Bioorg Med Chem Lett 19 (19), 5607-5612 (2009)

>  <Pubmed ID>
19713107

>  <DOI>
10.1016/j.bmcl.2009.08.032

$$$$
571909
Actelion Java MolfileCreator 1.0

 34 37  0  0  0  0  0  0  0  0999 V2000
    0.0000   -0.0000   -0.0000 O   0  0  0  0  0  0  0  0  0  0  0  0
   -0.0119    1.5051   -0.0000 C   0  0  0  0  0  0  0  0  0  0  0  0
   -1.3155    2.2636   -0.0000 N   0  0  0  0  0  0  0  0  0  0  0  0
    1.2681    2.2636   -0.0000 C   0  0  0  0  0  0  0  0  0  0  0  0
   -1.3273    3.7687   -0.0000 C   0  0  0  0  0  0  0  0  0  0  0  0
    1.2444    3.7687   -0.0000 C   0  0  0  0  0  0  0  0  0  0  0  0
    2.5480    1.5288   -0.0000 C   0  0  0  0  0  0  0  0  0  0  0  0
   -2.6310    4.5271   -0.0000 C   0  0  0  0  0  0  0  0  0  0  0  0
    2.5124    4.5390   -0.0000 C   0  0  0  0  0  0  0  0  0  0  0  0
    3.8279    2.2873   -0.0000 C   0  0  0  0  0  0  0  0  0  0  0  0
   -3.9346    3.7924   -0.0000 C   0  0  0  0  0  0  0  0  0  0  0  0
   -2.6428    6.0322   -0.0000 C   0  0  0  0  0  0  0  0  0  0  0  0
    3.8042    3.8042   -0.0000 C   0  0  0  0  0  0  0  0  0  0  0  0
   -5.2382    4.5508   -0.0000 C   0  0  0  0  0  0  0  0  0  0  0  0
   -3.9464    2.2991   -0.0000 C   0  0  0  0  0  0  0  0  0  0  0  0
   -3.9464    6.7907   -0.0000 O   0  0  0  0  0  0  0  0  0  0  0  0
   -1.3629    6.7907   -0.0000 C   0  0  0  0  0  0  0  0  0  0  0  0
   -6.5418    3.8161   -0.0000 C   0  0  0  0  0  0  0  0  0  0  0  0
   -5.2619    1.5643   -0.0000 C   0  0  0  0  0  0  0  0  0  0  0  0
   -3.9583    8.2958   -0.0000 C   0  0  0  0  0  0  0  0  0  0  0  0
   -1.8488    8.2247   -0.0000 O   0  0  0  0  0  0  0  0  0  0  0  0
    0.1185    6.8144   -0.0000 C   0  0  0  0  0  0  0  0  0  0  0  0
   -7.9877    4.2901   -0.0000 O   0  0  0  0  0  0  0  0  0  0  0  0
   -6.5537    2.3228   -0.0000 C   0  0  0  0  0  0  0  0  0  0  0  0
   -5.2619    9.0543   -0.0000 O   0  0  0  0  0  0  0  0  0  0  0  0
   -0.6518    9.1254   -0.0000 C   0  0  0  0  0  0  0  0  0  0  0  0
    0.5570    8.2484   -0.0000 O   0  0  0  0  0  0  0  0  0  0  0  0
    0.8414    5.5226   -0.0000 C   0  0  0  0  0  0  0  0  0  0  0  0
   -8.8884    3.0931   -0.0000 C   0  0  0  0  0  0  0  0  0  0  0  0
   -7.9995    1.8725   -0.0000 O   0  0  0  0  0  0  0  0  0  0  0  0
   -5.2738   10.5594   -0.0000 C   0  0  0  0  0  0  0  0  0  0  0  0
   -1.7303   10.2038   -0.0000 C   0  0  0  0  0  0  0  0  0  0  0  0
    0.3911   10.2038   -0.0000 C   0  0  0  0  0  0  0  0  0  0  0  0
    2.3228    5.5226   -0.0000 O   0  0  0  0  0  0  0  0  0  0  0  0
  1  2  2  0  0  0  0
  2  3  1  0  0  0  0
  2  4  1  0  0  0  0
  3  5  1  0  0  0  0
  4  6  2  0  0  0  0
  4  7  1  0  0  0  0
  8  5  1  1  0  0  0
  6  9  1  0  0  0  0
  7 10  2  0  0  0  0
  8 11  1  0  0  0  0
  8 12  1  0  0  0  0
  9 13  2  0  0  0  0
 11 14  2  0  0  0  0
 11 15  1  0  0  0  0
 12 16  1  1  0  0  0
 12 17  1  0  0  0  0
 14 18  1  0  0  0  0
 15 19  2  0  0  0  0
 16 20  1  0  0  0  0
 17 21  1  6  0  0  0
 17 22  1  0  0  0  0
 18 23  1  0  0  0  0
 18 24  2  0  0  0  0
 20 25  1  0  0  0  0
 21 26  1  0  0  0  0
 22 27  1  0  0  0  0
 22 28  1  1  0  0  0
 23 29  1  0  0  0  0
 24 30  1  0  0  0  0
 25 31  1  0  0  0  0
 26 32  1  0  0  0  0
 26 33  1  0  0  0  0
 28 34  1  0  0  0  0
 10 13  1  0  0  0  0
 19 24  1  0  0  0  0
 26 27  1  0  0  0  0
 29 30  1  0  0  0  0
M  END
>  <MolRegNo>
571909

>  <m>
=

>  <Value>
1550

>  <Unit>
nM

>  <Type>
Ki

>  <pValue>
5.81

>  <Ligand Efficiency>
0

>  <Binding Efficiency>
0

>  <Surface Efficiency>
0

>  <Assay Index>
434235

>  <Assay Category>


>  <Assay Organism>
Homo sapiens

>  <Target ID>
17045

>  <Target Name>
Cytochrome P450 3A4

>  <Target Organism>
Homo sapiens

>  <Target Description>
Target is a single protein chain

>  <Sequence Accession>
P08684

>  <Reference>
Bioorg Med Chem Lett 19 (19), 5607-5612 (2009)

>  <Pubmed ID>
19713107

>  <DOI>
10.1016/j.bmcl.2009.08.032

$$$$
571910
Actelion Java MolfileCreator 1.0

 40 42  0  0  0  0  0  0  0  0999 V2000
    0.0000   -0.0000   -0.0000 Si  0  0  0  0  0  0  0  0  0  0  0  0
   -0.7713   -1.2816   -0.0000 O   0  0  0  0  0  0  0  0  0  0  0  0
    1.4833   -0.0000   -0.0000 C   0  0  0  0  0  0  0  0  0  0  0  0
    0.7239    1.3172   -0.0000 C   0  0  0  0  0  0  0  0  0  0  0  0
   -1.3172    0.7595   -0.0000 C   0  0  0  0  0  0  0  0  0  0  0  0
   -2.2784   -1.2579   -0.0000 C   0  0  0  0  0  0  0  0  0  0  0  0
    2.9667    0.0119   -0.0000 C   0  0  0  0  0  0  0  0  0  0  0  0
    1.4715   -1.4833   -0.0000 C   0  0  0  0  0  0  0  0  0  0  0  0
    1.4833    1.5071   -0.0000 C   0  0  0  0  0  0  0  0  0  0  0  0
   -3.0260    0.0593   -0.0000 C   0  0  0  0  0  0  0  0  0  0  0  0
   -2.5869    1.4952   -0.0000 O   0  0  0  0  0  0  0  0  0  0  0  0
   -4.5331    0.0593   -0.0000 C   0  0  0  0  0  0  0  0  0  0  0  0
   -3.8092    2.3852   -0.0000 C   0  0  0  0  0  0  0  0  0  0  0  0
   -5.0196    1.4952   -0.0000 O   0  0  0  0  0  0  0  0  0  0  0  0
   -5.8384   -0.6764   -0.0000 C   0  0  0  0  0  0  0  0  0  0  0  0
   -4.8891    3.4651   -0.0000 C   0  0  0  0  0  0  0  0  0  0  0  0
   -2.7649    3.4651   -0.0000 C   0  0  0  0  0  0  0  0  0  0  0  0
   -7.1437    0.0831   -0.0000 O   0  0  0  0  0  0  0  0  0  0  0  0
   -5.8503   -2.1597   -0.0000 C   0  0  0  0  0  0  0  0  0  0  0  0
   -7.1556    1.5901   -0.0000 C   0  0  0  0  0  0  0  0  0  0  0  0
   -7.1556   -2.8955   -0.0000 C   0  0  0  0  0  0  0  0  0  0  0  0
   -4.5687   -2.8955   -0.0000 C   0  0  0  0  0  0  0  0  0  0  0  0
   -8.4609    2.3496   -0.0000 O   0  0  0  0  0  0  0  0  0  0  0  0
   -8.4609   -2.1360   -0.0000 C   0  0  0  0  0  0  0  0  0  0  0  0
   -7.1675   -4.3907   -0.0000 C   0  0  0  0  0  0  0  0  0  0  0  0
   -4.5805   -4.3788   -0.0000 N   0  0  0  0  0  0  0  0  0  0  0  0
   -8.4728    3.8567   -0.0000 C   0  0  0  0  0  0  0  0  0  0  0  0
   -9.7663   -2.8717   -0.0000 C   0  0  0  0  0  0  0  0  0  0  0  0
   -8.4847   -5.1264   -0.0000 C   0  0  0  0  0  0  0  0  0  0  0  0
   -3.2989   -5.1145   -0.0000 C   0  0  0  0  0  0  0  0  0  0  0  0
  -11.2021   -2.3971   -0.0000 O   0  0  0  0  0  0  0  0  0  0  0  0
   -9.7781   -4.3669   -0.0000 C   0  0  0  0  0  0  0  0  0  0  0  0
   -3.3108   -6.5979   -0.0000 O   0  0  0  0  0  0  0  0  0  0  0  0
   -2.0173   -4.3551   -0.0000 O   0  0  0  0  0  0  0  0  0  0  0  0
  -12.1040   -3.5956   -0.0000 C   0  0  0  0  0  0  0  0  0  0  0  0
  -11.2259   -4.8179   -0.0000 O   0  0  0  0  0  0  0  0  0  0  0  0
   -0.7357   -5.0908   -0.0000 C   0  0  0  0  0  0  0  0  0  0  0  0
   -1.1392   -3.6312   -0.0000 C   0  0  0  0  0  0  0  0  0  0  0  0
   -0.7476   -6.5741   -0.0000 C   0  0  0  0  0  0  0  0  0  0  0  0
    0.5459   -4.3313   -0.0000 C   0  0  0  0  0  0  0  0  0  0  0  0
  1  2  1  0  0  0  0
  1  3  1  0  0  0  0
  1  4  1  0  0  0  0
  1  5  1  0  0  0  0
  2  6  1  0  0  0  0
  3  7  1  0  0  0  0
  3  8  1  0  0  0  0
  3  9  1  0  0  0  0
 10  6  1  1  0  0  0
 10 11  1  0  0  0  0
 10 12  1  0  0  0  0
 11 13  1  0  0  0  0
 12 14  1  6  0  0  0
 12 15  1  0  0  0  0
 13 16  1  0  0  0  0
 13 17  1  0  0  0  0
 15 18  1  1  0  0  0
 15 19  1  0  0  0  0
 18 20  1  0  0  0  0
 19 21  1  0  0  0  0
 19 22  1  1  0  0  0
 20 23  1  0  0  0  0
 21 24  2  0  0  0  0
 21 25  1  0  0  0  0
 22 26  1  0  0  0  0
 23 27  1  0  0  0  0
 24 28  1  0  0  0  0
 25 29  2  0  0  0  0
 26 30  1  0  0  0  0
 28 31  1  0  0  0  0
 28 32  2  0  0  0  0
 30 33  2  0  0  0  0
 30 34  1  0  0  0  0
 31 35  1  0  0  0  0
 32 36  1  0  0  0  0
 34 37  1  0  0  0  0
 37 38  1  0  0  0  0
 37 39  1  0  0  0  0
 37 40  1  0  0  0  0
 13 14  1  0  0  0  0
 29 32  1  0  0  0  0
 35 36  1  0  0  0  0
M  END
>  <MolRegNo>
571910

>  <m>
=

>  <Value>
320

>  <Unit>
nM

>  <Type>
Ki

>  <pValue>
6.5

>  <Ligand Efficiency>
0

>  <Binding Efficiency>
0

>  <Surface Efficiency>
0

>  <Assay Index>
434235

>  <Assay Category>


>  <Assay Organism>
Homo sapiens

>  <Target ID>
17045

>  <Target Name>
Cytochrome P450 3A4

>  <Target Organism>
Homo sapiens

>  <Target Description>
Target is a single protein chain

>  <Sequence Accession>
P08684

>  <Reference>
Bioorg Med Chem Lett 19 (19), 5607-5612 (2009)

>  <Pubmed ID>
19713107

>  <DOI>
10.1016/j.bmcl.2009.08.032

$$$$
571911
Actelion Java MolfileCreator 1.0

 51 56  0  0  0  0  0  0  0  0999 V2000
    0.0000   -0.0000   -0.0000 Si  0  0  0  0  0  0  0  0  0  0  0  0
   -0.7487    1.3191   -0.0000 O   0  0  0  0  0  0  0  0  0  0  0  0
    0.7249    1.3191   -0.0000 C   0  0  0  0  0  0  0  0  0  0  0  0
    1.0458   -1.0458   -0.0000 C   0  0  0  0  0  0  0  0  0  0  0  0
   -0.7725   -1.2835   -0.0000 C   0  0  0  0  0  0  0  0  0  0  0  0
   -2.2579    1.3429   -0.0000 C   0  0  0  0  0  0  0  0  0  0  0  0
    2.2104    1.3310   -0.0000 C   0  0  0  0  0  0  0  0  0  0  0  0
   -0.0475    2.6145   -0.0000 C   0  0  0  0  0  0  0  0  0  0  0  0
    2.5194   -0.9864   -0.0000 C   0  0  0  0  0  0  0  0  0  0  0  0
    0.3209   -2.3530   -0.0000 C   0  0  0  0  0  0  0  0  0  0  0  0
   -0.3922   -2.7214   -0.0000 C   0  0  0  0  0  0  0  0  0  0  0  0
   -2.0797   -0.5229   -0.0000 C   0  0  0  0  0  0  0  0  0  0  0  0
   -1.8420   -2.3293   -0.0000 C   0  0  0  0  0  0  0  0  0  0  0  0
   -3.0066    2.6620   -0.0000 C   0  0  0  0  0  0  0  0  0  0  0  0
    2.9353    2.6501   -0.0000 C   0  0  0  0  0  0  0  0  0  0  0  0
    0.6774    3.9336   -0.0000 C   0  0  0  0  0  0  0  0  0  0  0  0
    3.3037   -2.2461   -0.0000 C   0  0  0  0  0  0  0  0  0  0  0  0
    1.0933   -3.6127   -0.0000 C   0  0  0  0  0  0  0  0  0  0  0  0
   -2.5669    4.1000   -0.0000 O   0  0  0  0  0  0  0  0  0  0  0  0
   -4.5159    2.6620   -0.0000 C   0  0  0  0  0  0  0  0  0  0  0  0
    2.1629    3.9574   -0.0000 C   0  0  0  0  0  0  0  0  0  0  0  0
    2.5907   -3.5652   -0.0000 C   0  0  0  0  0  0  0  0  0  0  0  0
   -3.7910    4.9913   -0.0000 C   0  0  0  0  0  0  0  0  0  0  0  0
   -5.0031    4.1000   -0.0000 O   0  0  0  0  0  0  0  0  0  0  0  0
   -5.8231    1.9252   -0.0000 C   0  0  0  0  0  0  0  0  0  0  0  0
   -4.8724    6.0727   -0.0000 C   0  0  0  0  0  0  0  0  0  0  0  0
   -2.7452    6.0727   -0.0000 C   0  0  0  0  0  0  0  0  0  0  0  0
   -7.1304    2.6858   -0.0000 O   0  0  0  0  0  0  0  0  0  0  0  0
   -5.8350    0.4397   -0.0000 C   0  0  0  0  0  0  0  0  0  0  0  0
   -7.1422    4.1950   -0.0000 C   0  0  0  0  0  0  0  0  0  0  0  0
   -7.1422   -0.2971   -0.0000 C   0  0  0  0  0  0  0  0  0  0  0  0
   -4.5515   -0.2971   -0.0000 C   0  0  0  0  0  0  0  0  0  0  0  0
   -8.4495    4.9556   -0.0000 O   0  0  0  0  0  0  0  0  0  0  0  0
   -8.4495    0.4635   -0.0000 C   0  0  0  0  0  0  0  0  0  0  0  0
   -7.1541   -1.7945   -0.0000 C   0  0  0  0  0  0  0  0  0  0  0  0
   -4.5634   -1.7826   -0.0000 N   0  0  0  0  0  0  0  0  0  0  0  0
   -8.4614    6.4649   -0.0000 C   0  0  0  0  0  0  0  0  0  0  0  0
   -9.7567   -0.2733   -0.0000 C   0  0  0  0  0  0  0  0  0  0  0  0
   -8.4732   -2.5313   -0.0000 C   0  0  0  0  0  0  0  0  0  0  0  0
   -3.2800   -2.5194   -0.0000 C   0  0  0  0  0  0  0  0  0  0  0  0
  -11.1947    0.2020   -0.0000 O   0  0  0  0  0  0  0  0  0  0  0  0
   -9.7686   -1.7707   -0.0000 C   0  0  0  0  0  0  0  0  0  0  0  0
   -1.9965   -1.7588   -0.0000 O   0  0  0  0  0  0  0  0  0  0  0  0
   -3.2919   -4.0049   -0.0000 C   0  0  0  0  0  0  0  0  0  0  0  0
  -12.0978   -0.9983   -0.0000 C   0  0  0  0  0  0  0  0  0  0  0  0
  -11.2184   -2.2223   -0.0000 O   0  0  0  0  0  0  0  0  0  0  0  0
   -4.5991   -4.7417   -0.0000 C   0  0  0  0  0  0  0  0  0  0  0  0
   -2.0084   -4.7298   -0.0000 C   0  0  0  0  0  0  0  0  0  0  0  0
   -4.6110   -6.2272   -0.0000 C   0  0  0  0  0  0  0  0  0  0  0  0
   -2.0084   -6.2153   -0.0000 C   0  0  0  0  0  0  0  0  0  0  0  0
   -3.3156   -6.9640   -0.0000 C   0  0  0  0  0  0  0  0  0  0  0  0
  1  2  1  0  0  0  0
  1  3  1  0  0  0  0
  1  4  1  0  0  0  0
  1  5  1  0  0  0  0
  2  6  1  0  0  0  0
  3  7  2  0  0  0  0
  3  8  1  0  0  0  0
  4  9  2  0  0  0  0
  4 10  1  0  0  0  0
  5 11  1  0  0  0  0
  5 12  1  0  0  0  0
  5 13  1  0  0  0  0
 14  6  1  1  0  0  0
  7 15  1  0  0  0  0
  8 16  2  0  0  0  0
  9 17  1  0  0  0  0
 10 18  2  0  0  0  0
 14 19  1  0  0  0  0
 14 20  1  0  0  0  0
 15 21  2  0  0  0  0
 17 22  2  0  0  0  0
 19 23  1  0  0  0  0
 20 24  1  6  0  0  0
 20 25  1  0  0  0  0
 23 26  1  0  0  0  0
 23 27  1  0  0  0  0
 25 28  1  1  0  0  0
 25 29  1  0  0  0  0
 28 30  1  0  0  0  0
 29 31  1  0  0  0  0
 29 32  1  1  0  0  0
 30 33  1  0  0  0  0
 31 34  2  0  0  0  0
 31 35  1  0  0  0  0
 32 36  1  0  0  0  0
 33 37  1  0  0  0  0
 34 38  1  0  0  0  0
 35 39  2  0  0  0  0
 36 40  1  0  0  0  0
 38 41  1  0  0  0  0
 38 42  2  0  0  0  0
 40 43  2  0  0  0  0
 40 44  1  0  0  0  0
 41 45  1  0  0  0  0
 42 46  1  0  0  0  0
 44 47  2  0  0  0  0
 44 48  1  0  0  0  0
 47 49  1  0  0  0  0
 48 50  2  0  0  0  0
 49 51  2  0  0  0  0
 16 21  1  0  0  0  0
 18 22  1  0  0  0  0
 23 24  1  0  0  0  0
 39 42  1  0  0  0  0
 45 46  1  0  0  0  0
 50 51  1  0  0  0  0
M  END
>  <MolRegNo>
571911

>  <m>
=

>  <Value>
580

>  <Unit>
nM

>  <Type>
Ki

>  <pValue>
6.24

>  <Ligand Efficiency>
0

>  <Binding Efficiency>
0

>  <Surface Efficiency>
0

>  <Assay Index>
434235

>  <Assay Category>


>  <Assay Organism>
Homo sapiens

>  <Target ID>
17045

>  <Target Name>
Cytochrome P450 3A4

>  <Target Organism>
Homo sapiens

>  <Target Description>
Target is a single protein chain

>  <Sequence Accession>
P08684

>  <Reference>
Bioorg Med Chem Lett 19 (19), 5607-5612 (2009)

>  <Pubmed ID>
19713107

>  <DOI>
10.1016/j.bmcl.2009.08.032

$$$$
571912
Actelion Java MolfileCreator 1.0

 44 48  0  0  0  0  0  0  0  0999 V2000
    0.0000   -0.0000   -0.0000 S   0  0  0  0  0  0  0  0  0  0  0  0
   -1.4720   -0.3680   -0.0000 O   0  0  0  0  0  0  0  0  0  0  0  0
    0.3680    1.4602   -0.0000 O   0  0  0  0  0  0  0  0  0  0  0  0
   -0.7716   -1.2821   -0.0000 O   0  0  0  0  0  0  0  0  0  0  0  0
    1.4839   -0.0000   -0.0000 C   0  0  0  0  0  0  0  0  0  0  0  0
   -2.2793   -1.2583   -0.0000 C   0  0  0  0  0  0  0  0  0  0  0  0
    2.2080   -1.2940   -0.0000 C   0  0  0  0  0  0  0  0  0  0  0  0
    2.2199    1.3058   -0.0000 C   0  0  0  0  0  0  0  0  0  0  0  0
   -3.0272    0.0594   -0.0000 C   0  0  0  0  0  0  0  0  0  0  0  0
    3.6919   -1.2940   -0.0000 C   0  0  0  0  0  0  0  0  0  0  0  0
    3.7038    1.3058   -0.0000 C   0  0  0  0  0  0  0  0  0  0  0  0
   -2.5879    1.4958   -0.0000 O   0  0  0  0  0  0  0  0  0  0  0  0
   -4.5348    0.0594   -0.0000 C   0  0  0  0  0  0  0  0  0  0  0  0
    4.4398    0.0119   -0.0000 C   0  0  0  0  0  0  0  0  0  0  0  0
   -3.8107    2.3861   -0.0000 C   0  0  0  0  0  0  0  0  0  0  0  0
   -5.0215    1.4958   -0.0000 O   0  0  0  0  0  0  0  0  0  0  0  0
   -5.8406   -0.6767   -0.0000 C   0  0  0  0  0  0  0  0  0  0  0  0
    5.9237    0.0119   -0.0000 C   0  0  0  0  0  0  0  0  0  0  0  0
   -4.8909    3.4664   -0.0000 C   0  0  0  0  0  0  0  0  0  0  0  0
   -2.7660    3.4664   -0.0000 C   0  0  0  0  0  0  0  0  0  0  0  0
   -7.1465    0.0831   -0.0000 O   0  0  0  0  0  0  0  0  0  0  0  0
   -5.8525   -2.1606   -0.0000 C   0  0  0  0  0  0  0  0  0  0  0  0
   -7.1583    1.5907   -0.0000 C   0  0  0  0  0  0  0  0  0  0  0  0
   -7.1583   -2.8966   -0.0000 C   0  0  0  0  0  0  0  0  0  0  0  0
   -4.5704   -2.8966   -0.0000 C   0  0  0  0  0  0  0  0  0  0  0  0
   -8.4642    2.3505   -0.0000 O   0  0  0  0  0  0  0  0  0  0  0  0
   -8.4642   -2.1368   -0.0000 C   0  0  0  0  0  0  0  0  0  0  0  0
   -7.1702   -4.3923   -0.0000 C   0  0  0  0  0  0  0  0  0  0  0  0
   -4.5823   -4.3805   -0.0000 N   0  0  0  0  0  0  0  0  0  0  0  0
   -8.4760    3.8581   -0.0000 C   0  0  0  0  0  0  0  0  0  0  0  0
   -9.7700   -2.8728   -0.0000 C   0  0  0  0  0  0  0  0  0  0  0  0
   -8.4879   -5.1284   -0.0000 C   0  0  0  0  0  0  0  0  0  0  0  0
   -3.3002   -5.1165   -0.0000 C   0  0  0  0  0  0  0  0  0  0  0  0
  -11.2183   -2.3980   -0.0000 O   0  0  0  0  0  0  0  0  0  0  0  0
   -9.7819   -4.3686   -0.0000 C   0  0  0  0  0  0  0  0  0  0  0  0
   -3.3121   -6.6004   -0.0000 O   0  0  0  0  0  0  0  0  0  0  0  0
   -2.0181   -4.3567   -0.0000 C   0  0  0  0  0  0  0  0  0  0  0  0
  -12.1205   -3.5970   -0.0000 C   0  0  0  0  0  0  0  0  0  0  0  0
  -11.2302   -4.8197   -0.0000 O   0  0  0  0  0  0  0  0  0  0  0  0
   -0.7360   -5.0927   -0.0000 C   0  0  0  0  0  0  0  0  0  0  0  0
   -2.0418   -2.8491   -0.0000 C   0  0  0  0  0  0  0  0  0  0  0  0
    0.5461   -4.3330   -0.0000 C   0  0  0  0  0  0  0  0  0  0  0  0
   -0.7716   -2.0775   -0.0000 C   0  0  0  0  0  0  0  0  0  0  0  0
    0.5342   -2.8253   -0.0000 C   0  0  0  0  0  0  0  0  0  0  0  0
  1  2  2  0  0  0  0
  1  3  2  0  0  0  0
  1  4  1  0  0  0  0
  1  5  1  0  0  0  0
  4  6  1  0  0  0  0
  5  7  2  0  0  0  0
  5  8  1  0  0  0  0
  9  6  1  1  0  0  0
  7 10  1  0  0  0  0
  8 11  2  0  0  0  0
  9 12  1  0  0  0  0
  9 13  1  0  0  0  0
 10 14  2  0  0  0  0
 12 15  1  0  0  0  0
 13 16  1  6  0  0  0
 13 17  1  0  0  0  0
 14 18  1  0  0  0  0
 15 19  1  0  0  0  0
 15 20  1  0  0  0  0
 17 21  1  1  0  0  0
 17 22  1  0  0  0  0
 21 23  1  0  0  0  0
 22 24  1  0  0  0  0
 22 25  1  1  0  0  0
 23 26  1  0  0  0  0
 24 27  2  0  0  0  0
 24 28  1  0  0  0  0
 25 29  1  0  0  0  0
 26 30  1  0  0  0  0
 27 31  1  0  0  0  0
 28 32  2  0  0  0  0
 29 33  1  0  0  0  0
 31 34  1  0  0  0  0
 31 35  2  0  0  0  0
 33 36  2  0  0  0  0
 33 37  1  0  0  0  0
 34 38  1  0  0  0  0
 35 39  1  0  0  0  0
 37 40  2  0  0  0  0
 37 41  1  0  0  0  0
 40 42  1  0  0  0  0
 41 43  2  0  0  0  0
 42 44  2  0  0  0  0
 11 14  1  0  0  0  0
 15 16  1  0  0  0  0
 32 35  1  0  0  0  0
 38 39  1  0  0  0  0
 43 44  1  0  0  0  0
M  END
>  <MolRegNo>
571912

>  <m>
=

>  <Value>
70

>  <Unit>
nM

>  <Type>
Ki

>  <pValue>
7.16

>  <Ligand Efficiency>
0

>  <Binding Efficiency>
0

>  <Surface Efficiency>
0

>  <Assay Index>
434235

>  <Assay Category>


>  <Assay Organism>
Homo sapiens

>  <Target ID>
17045

>  <Target Name>
Cytochrome P450 3A4

>  <Target Organism>
Homo sapiens

>  <Target Description>
Target is a single protein chain

>  <Sequence Accession>
P08684

>  <Reference>
Bioorg Med Chem Lett 19 (19), 5607-5612 (2009)

>  <Pubmed ID>
19713107

>  <DOI>
10.1016/j.bmcl.2009.08.032

$$$$
571935
Actelion Java MolfileCreator 1.0

 37 40  0  0  0  0  0  0  0  0999 V2000
    0.0000   -0.0000   -0.0000 O   0  0  0  0  0  0  0  0  0  0  0  0
   -0.0119    1.5052   -0.0000 C   0  0  0  0  0  0  0  0  0  0  0  0
   -1.3155    2.2637   -0.0000 N   0  0  0  0  0  0  0  0  0  0  0  0
    1.2681    2.2637   -0.0000 C   0  0  0  0  0  0  0  0  0  0  0  0
   -1.3274    3.7689   -0.0000 C   0  0  0  0  0  0  0  0  0  0  0  0
    2.5481    1.5289   -0.0000 C   0  0  0  0  0  0  0  0  0  0  0  0
    1.2444    3.7689   -0.0000 C   0  0  0  0  0  0  0  0  0  0  0  0
   -2.6311    4.5274   -0.0000 C   0  0  0  0  0  0  0  0  0  0  0  0
    3.8281    2.2874   -0.0000 C   0  0  0  0  0  0  0  0  0  0  0  0
    2.5126    4.5392   -0.0000 C   0  0  0  0  0  0  0  0  0  0  0  0
   -3.9348    3.7926   -0.0000 C   0  0  0  0  0  0  0  0  0  0  0  0
   -2.6430    6.0326   -0.0000 C   0  0  0  0  0  0  0  0  0  0  0  0
    3.8163    3.7926   -0.0000 C   0  0  0  0  0  0  0  0  0  0  0  0
   -5.2385    4.5511   -0.0000 C   0  0  0  0  0  0  0  0  0  0  0  0
   -3.9466    2.2992   -0.0000 C   0  0  0  0  0  0  0  0  0  0  0  0
   -3.9466    6.7911   -0.0000 O   0  0  0  0  0  0  0  0  0  0  0  0
   -1.3630    6.7911   -0.0000 C   0  0  0  0  0  0  0  0  0  0  0  0
   -6.5422    3.8163   -0.0000 C   0  0  0  0  0  0  0  0  0  0  0  0
   -5.2622    1.5644   -0.0000 C   0  0  0  0  0  0  0  0  0  0  0  0
   -3.9585    8.2963   -0.0000 C   0  0  0  0  0  0  0  0  0  0  0  0
   -1.8489    8.2251   -0.0000 O   0  0  0  0  0  0  0  0  0  0  0  0
    0.1185    6.8148   -0.0000 C   0  0  0  0  0  0  0  0  0  0  0  0
   -7.9881    4.2903   -0.0000 O   0  0  0  0  0  0  0  0  0  0  0  0
   -6.5540    2.3230   -0.0000 C   0  0  0  0  0  0  0  0  0  0  0  0
   -5.2740    9.0548   -0.0000 O   0  0  0  0  0  0  0  0  0  0  0  0
   -0.6518    9.1259   -0.0000 C   0  0  0  0  0  0  0  0  0  0  0  0
    0.5570    8.2488   -0.0000 O   0  0  0  0  0  0  0  0  0  0  0  0
    0.8415    5.5229   -0.0000 C   0  0  0  0  0  0  0  0  0  0  0  0
   -8.8770    3.0933   -0.0000 C   0  0  0  0  0  0  0  0  0  0  0  0
   -8.0000    1.8726   -0.0000 O   0  0  0  0  0  0  0  0  0  0  0  0
   -5.2859   10.5599   -0.0000 C   0  0  0  0  0  0  0  0  0  0  0  0
   -1.7304   10.2044   -0.0000 C   0  0  0  0  0  0  0  0  0  0  0  0
    0.3911   10.2044   -0.0000 C   0  0  0  0  0  0  0  0  0  0  0  0
    2.3230    5.5229   -0.0000 O   0  0  0  0  0  0  0  0  0  0  0  0
    3.0696    6.8266   -0.0000 C   0  0  0  0  0  0  0  0  0  0  0  0
    2.3230    8.1422   -0.0000 O   0  0  0  0  0  0  0  0  0  0  0  0
    4.5511    6.8266   -0.0000 C   0  0  0  0  0  0  0  0  0  0  0  0
  1  2  2  0  0  0  0
  2  3  1  0  0  0  0
  2  4  1  0  0  0  0
  3  5  1  0  0  0  0
  4  6  2  0  0  0  0
  4  7  1  0  0  0  0
  8  5  1  1  0  0  0
  6  9  1  0  0  0  0
  7 10  2  0  0  0  0
  8 11  1  0  0  0  0
  8 12  1  0  0  0  0
  9 13  2  0  0  0  0
 11 14  2  0  0  0  0
 11 15  1  0  0  0  0
 12 16  1  1  0  0  0
 12 17  1  0  0  0  0
 14 18  1  0  0  0  0
 15 19  2  0  0  0  0
 16 20  1  0  0  0  0
 17 21  1  6  0  0  0
 17 22  1  0  0  0  0
 18 23  1  0  0  0  0
 18 24  2  0  0  0  0
 20 25  1  0  0  0  0
 21 26  1  0  0  0  0
 22 27  1  0  0  0  0
 22 28  1  1  0  0  0
 23 29  1  0  0  0  0
 24 30  1  0  0  0  0
 25 31  1  0  0  0  0
 26 32  1  0  0  0  0
 26 33  1  0  0  0  0
 28 34  1  0  0  0  0
 34 35  1  0  0  0  0
 35 36  2  0  0  0  0
 35 37  1  0  0  0  0
 10 13  1  0  0  0  0
 19 24  1  0  0  0  0
 26 27  1  0  0  0  0
 29 30  1  0  0  0  0
M  END
>  <MolRegNo>
571935

>  <m>
=

>  <Value>
1010

>  <Unit>
nM

>  <Type>
Ki

>  <pValue>
6

>  <Ligand Efficiency>
0

>  <Binding Efficiency>
0

>  <Surface Efficiency>
0

>  <Assay Index>
434235

>  <Assay Category>


>  <Assay Organism>
Homo sapiens

>  <Target ID>
17045

>  <Target Name>
Cytochrome P450 3A4

>  <Target Organism>
Homo sapiens

>  <Target Description>
Target is a single protein chain

>  <Sequence Accession>
P08684

>  <Reference>
Bioorg Med Chem Lett 19 (19), 5607-5612 (2009)

>  <Pubmed ID>
19713107

>  <DOI>
10.1016/j.bmcl.2009.08.032

$$$$
620438
Actelion Java MolfileCreator 1.0

 41 44  0  0  0  0  0  0  0  0999 V2000
    0.0000   -0.0000   -0.0000 Si  0  0  0  0  0  0  0  0  0  0  0  0
   -0.7713   -1.2816   -0.0000 O   0  0  0  0  0  0  0  0  0  0  0  0
    1.4833   -0.0000   -0.0000 C   0  0  0  0  0  0  0  0  0  0  0  0
    0.7238    1.3172   -0.0000 C   0  0  0  0  0  0  0  0  0  0  0  0
   -1.3172    0.7594   -0.0000 C   0  0  0  0  0  0  0  0  0  0  0  0
   -2.2783   -1.2578   -0.0000 C   0  0  0  0  0  0  0  0  0  0  0  0
    2.9666    0.0119   -0.0000 C   0  0  0  0  0  0  0  0  0  0  0  0
    1.4714   -1.4833   -0.0000 C   0  0  0  0  0  0  0  0  0  0  0  0
    1.4833    1.5070   -0.0000 C   0  0  0  0  0  0  0  0  0  0  0  0
   -3.0259    0.0593   -0.0000 C   0  0  0  0  0  0  0  0  0  0  0  0
   -2.5868    1.4951   -0.0000 O   0  0  0  0  0  0  0  0  0  0  0  0
   -4.5329    0.0593   -0.0000 C   0  0  0  0  0  0  0  0  0  0  0  0
   -3.8091    2.3851   -0.0000 C   0  0  0  0  0  0  0  0  0  0  0  0
   -5.0194    1.4951   -0.0000 O   0  0  0  0  0  0  0  0  0  0  0  0
   -5.8382   -0.6764   -0.0000 C   0  0  0  0  0  0  0  0  0  0  0  0
   -4.8889    3.4649   -0.0000 C   0  0  0  0  0  0  0  0  0  0  0  0
   -2.7648    3.4649   -0.0000 C   0  0  0  0  0  0  0  0  0  0  0  0
   -7.1435    0.0831   -0.0000 O   0  0  0  0  0  0  0  0  0  0  0  0
   -5.8501   -2.1597   -0.0000 C   0  0  0  0  0  0  0  0  0  0  0  0
   -7.1553    1.5901   -0.0000 C   0  0  0  0  0  0  0  0  0  0  0  0
   -7.1553   -2.8954   -0.0000 C   0  0  0  0  0  0  0  0  0  0  0  0
   -4.5685   -2.8954   -0.0000 C   0  0  0  0  0  0  0  0  0  0  0  0
   -8.4606    2.3495   -0.0000 O   0  0  0  0  0  0  0  0  0  0  0  0
   -8.4606   -2.1359   -0.0000 C   0  0  0  0  0  0  0  0  0  0  0  0
   -7.1672   -4.3905   -0.0000 C   0  0  0  0  0  0  0  0  0  0  0  0
   -4.5804   -4.3786   -0.0000 N   0  0  0  0  0  0  0  0  0  0  0  0
   -8.4725    3.8565   -0.0000 C   0  0  0  0  0  0  0  0  0  0  0  0
   -9.7659   -2.8716   -0.0000 C   0  0  0  0  0  0  0  0  0  0  0  0
   -8.4844   -5.1262   -0.0000 C   0  0  0  0  0  0  0  0  0  0  0  0
   -3.2988   -5.1143   -0.0000 C   0  0  0  0  0  0  0  0  0  0  0  0
  -11.2017   -2.3970   -0.0000 O   0  0  0  0  0  0  0  0  0  0  0  0
   -9.7778   -4.3668   -0.0000 C   0  0  0  0  0  0  0  0  0  0  0  0
   -3.3107   -6.5976   -0.0000 O   0  0  0  0  0  0  0  0  0  0  0  0
   -2.0173   -4.3549   -0.0000 C   0  0  0  0  0  0  0  0  0  0  0  0
  -12.1036   -3.5955   -0.0000 C   0  0  0  0  0  0  0  0  0  0  0  0
  -11.2255   -4.8177   -0.0000 O   0  0  0  0  0  0  0  0  0  0  0  0
   -2.0410   -2.8479   -0.0000 C   0  0  0  0  0  0  0  0  0  0  0  0
   -0.7357   -5.0906   -0.0000 C   0  0  0  0  0  0  0  0  0  0  0  0
   -0.7713   -2.0766   -0.0000 C   0  0  0  0  0  0  0  0  0  0  0  0
    0.5458   -4.3312   -0.0000 C   0  0  0  0  0  0  0  0  0  0  0  0
    0.5221   -2.8123   -0.0000 C   0  0  0  0  0  0  0  0  0  0  0  0
  1  2  1  0  0  0  0
  1  3  1  0  0  0  0
  1  4  1  0  0  0  0
  1  5  1  0  0  0  0
  2  6  1  0  0  0  0
  3  7  1  0  0  0  0
  3  8  1  0  0  0  0
  3  9  1  0  0  0  0
 10  6  1  1  0  0  0
 10 11  1  0  0  0  0
 10 12  1  0  0  0  0
 11 13  1  0  0  0  0
 12 14  1  6  0  0  0
 12 15  1  0  0  0  0
 13 16  1  0  0  0  0
 13 17  1  0  0  0  0
 15 18  1  6  0  0  0
 15 19  1  0  0  0  0
 18 20  1  0  0  0  0
 19 21  1  0  0  0  0
 19 22  1  6  0  0  0
 20 23  1  0  0  0  0
 21 24  2  0  0  0  0
 21 25  1  0  0  0  0
 22 26  1  0  0  0  0
 23 27  1  0  0  0  0
 24 28  1  0  0  0  0
 25 29  2  0  0  0  0
 26 30  1  0  0  0  0
 28 31  1  0  0  0  0
 28 32  2  0  0  0  0
 30 33  2  0  0  0  0
 30 34  1  0  0  0  0
 31 35  1  0  0  0  0
 32 36  1  0  0  0  0
 34 37  2  0  0  0  0
 34 38  1  0  0  0  0
 37 39  1  0  0  0  0
 38 40  2  0  0  0  0
 39 41  2  0  0  0  0
 13 14  1  0  0  0  0
 29 32  1  0  0  0  0
 35 36  1  0  0  0  0
 40 41  1  0  0  0  0
M  END
>  <MolRegNo>
620438

>  <m>
=

>  <Value>
30

>  <Unit>
nM

>  <Type>
Ki

>  <pValue>
7.52

>  <Ligand Efficiency>
0

>  <Binding Efficiency>
0

>  <Surface Efficiency>
0

>  <Assay Index>
470042

>  <Assay Category>


>  <Assay Organism>
Homo sapiens

>  <Target ID>
17045

>  <Target Name>
Cytochrome P450 3A4

>  <Target Organism>
Homo sapiens

>  <Target Description>
Target is a single protein chain

>  <Sequence Accession>
P08684

>  <Reference>
Bioorg Med Chem Lett 20 (7), 2335-2339 (2010)

>  <Pubmed ID>
20189386

>  <DOI>
10.1016/j.bmcl.2010.01.157

$$$$
620440
Actelion Java MolfileCreator 1.0

 40 42  0  0  0  0  0  0  0  0999 V2000
    0.0000   -0.0000   -0.0000 Si  0  0  0  0  0  0  0  0  0  0  0  0
   -0.7713   -1.2816   -0.0000 O   0  0  0  0  0  0  0  0  0  0  0  0
    1.4833   -0.0000   -0.0000 C   0  0  0  0  0  0  0  0  0  0  0  0
    0.7239    1.3172   -0.0000 C   0  0  0  0  0  0  0  0  0  0  0  0
   -1.3172    0.7595   -0.0000 C   0  0  0  0  0  0  0  0  0  0  0  0
   -2.2784   -1.2579   -0.0000 C   0  0  0  0  0  0  0  0  0  0  0  0
    2.9667    0.0119   -0.0000 C   0  0  0  0  0  0  0  0  0  0  0  0
    1.4715   -1.4833   -0.0000 C   0  0  0  0  0  0  0  0  0  0  0  0
    1.4833    1.5071   -0.0000 C   0  0  0  0  0  0  0  0  0  0  0  0
   -3.0260    0.0593   -0.0000 C   0  0  0  0  0  0  0  0  0  0  0  0
   -2.5869    1.4952   -0.0000 O   0  0  0  0  0  0  0  0  0  0  0  0
   -4.5331    0.0593   -0.0000 C   0  0  0  0  0  0  0  0  0  0  0  0
   -3.8092    2.3852   -0.0000 C   0  0  0  0  0  0  0  0  0  0  0  0
   -5.0196    1.4952   -0.0000 O   0  0  0  0  0  0  0  0  0  0  0  0
   -5.8384   -0.6764   -0.0000 C   0  0  0  0  0  0  0  0  0  0  0  0
   -4.8891    3.4651   -0.0000 C   0  0  0  0  0  0  0  0  0  0  0  0
   -2.7649    3.4651   -0.0000 C   0  0  0  0  0  0  0  0  0  0  0  0
   -7.1437    0.0831   -0.0000 O   0  0  0  0  0  0  0  0  0  0  0  0
   -5.8503   -2.1597   -0.0000 C   0  0  0  0  0  0  0  0  0  0  0  0
   -7.1556    1.5901   -0.0000 C   0  0  0  0  0  0  0  0  0  0  0  0
   -7.1556   -2.8955   -0.0000 C   0  0  0  0  0  0  0  0  0  0  0  0
   -4.5687   -2.8955   -0.0000 C   0  0  0  0  0  0  0  0  0  0  0  0
   -8.4609    2.3496   -0.0000 O   0  0  0  0  0  0  0  0  0  0  0  0
   -8.4609   -2.1360   -0.0000 C   0  0  0  0  0  0  0  0  0  0  0  0
   -7.1675   -4.3907   -0.0000 C   0  0  0  0  0  0  0  0  0  0  0  0
   -4.5805   -4.3788   -0.0000 N   0  0  0  0  0  0  0  0  0  0  0  0
   -8.4728    3.8567   -0.0000 C   0  0  0  0  0  0  0  0  0  0  0  0
   -9.7663   -2.8717   -0.0000 C   0  0  0  0  0  0  0  0  0  0  0  0
   -8.4847   -5.1264   -0.0000 C   0  0  0  0  0  0  0  0  0  0  0  0
   -3.2989   -5.1145   -0.0000 C   0  0  0  0  0  0  0  0  0  0  0  0
  -11.2021   -2.3971   -0.0000 O   0  0  0  0  0  0  0  0  0  0  0  0
   -9.7781   -4.3669   -0.0000 C   0  0  0  0  0  0  0  0  0  0  0  0
   -3.3108   -6.5979   -0.0000 O   0  0  0  0  0  0  0  0  0  0  0  0
   -2.0173   -4.3551   -0.0000 O   0  0  0  0  0  0  0  0  0  0  0  0
  -12.1040   -3.5956   -0.0000 C   0  0  0  0  0  0  0  0  0  0  0  0
  -11.2259   -4.8179   -0.0000 O   0  0  0  0  0  0  0  0  0  0  0  0
   -0.7357   -5.0908   -0.0000 C   0  0  0  0  0  0  0  0  0  0  0  0
   -1.1392   -3.6312   -0.0000 C   0  0  0  0  0  0  0  0  0  0  0  0
   -0.7476   -6.5741   -0.0000 C   0  0  0  0  0  0  0  0  0  0  0  0
    0.5459   -4.3313   -0.0000 C   0  0  0  0  0  0  0  0  0  0  0  0
  1  2  1  0  0  0  0
  1  3  1  0  0  0  0
  1  4  1  0  0  0  0
  1  5  1  0  0  0  0
  2  6  1  0  0  0  0
  3  7  1  0  0  0  0
  3  8  1  0  0  0  0
  3  9  1  0  0  0  0
 10  6  1  1  0  0  0
 10 11  1  0  0  0  0
 10 12  1  0  0  0  0
 11 13  1  0  0  0  0
 12 14  1  6  0  0  0
 12 15  1  0  0  0  0
 13 16  1  0  0  0  0
 13 17  1  0  0  0  0
 15 18  1  6  0  0  0
 15 19  1  0  0  0  0
 18 20  1  0  0  0  0
 19 21  1  0  0  0  0
 19 22  1  6  0  0  0
 20 23  1  0  0  0  0
 21 24  2  0  0  0  0
 21 25  1  0  0  0  0
 22 26  1  0  0  0  0
 23 27  1  0  0  0  0
 24 28  1  0  0  0  0
 25 29  2  0  0  0  0
 26 30  1  0  0  0  0
 28 31  1  0  0  0  0
 28 32  2  0  0  0  0
 30 33  2  0  0  0  0
 30 34  1  0  0  0  0
 31 35  1  0  0  0  0
 32 36  1  0  0  0  0
 34 37  1  0  0  0  0
 37 38  1  0  0  0  0
 37 39  1  0  0  0  0
 37 40  1  0  0  0  0
 13 14  1  0  0  0  0
 29 32  1  0  0  0  0
 35 36  1  0  0  0  0
M  END
>  <MolRegNo>
620440

>  <m>
=

>  <Value>
240

>  <Unit>
nM

>  <Type>
Ki

>  <pValue>
6.62

>  <Ligand Efficiency>
0

>  <Binding Efficiency>
0

>  <Surface Efficiency>
0

>  <Assay Index>
470042

>  <Assay Category>


>  <Assay Organism>
Homo sapiens

>  <Target ID>
17045

>  <Target Name>
Cytochrome P450 3A4

>  <Target Organism>
Homo sapiens

>  <Target Description>
Target is a single protein chain

>  <Sequence Accession>
P08684

>  <Reference>
Bioorg Med Chem Lett 20 (7), 2335-2339 (2010)

>  <Pubmed ID>
20189386

>  <DOI>
10.1016/j.bmcl.2010.01.157

$$$$
620519
Actelion Java MolfileCreator 1.0

 34 37  0  0  0  0  0  0  0  0999 V2000
    0.0000   -0.0000   -0.0000 O   0  0  0  0  0  0  0  0  0  0  0  0
   -0.0119    1.5051   -0.0000 C   0  0  0  0  0  0  0  0  0  0  0  0
   -1.3155    2.2636   -0.0000 N   0  0  0  0  0  0  0  0  0  0  0  0
    1.2681    2.2636   -0.0000 C   0  0  0  0  0  0  0  0  0  0  0  0
   -1.3273    3.7687   -0.0000 C   0  0  0  0  0  0  0  0  0  0  0  0
    1.2444    3.7687   -0.0000 C   0  0  0  0  0  0  0  0  0  0  0  0
    2.5480    1.5288   -0.0000 C   0  0  0  0  0  0  0  0  0  0  0  0
   -2.6310    4.5271   -0.0000 C   0  0  0  0  0  0  0  0  0  0  0  0
    2.5124    4.5390   -0.0000 C   0  0  0  0  0  0  0  0  0  0  0  0
    3.8279    2.2873   -0.0000 C   0  0  0  0  0  0  0  0  0  0  0  0
   -3.9346    3.7924   -0.0000 C   0  0  0  0  0  0  0  0  0  0  0  0
   -2.6428    6.0322   -0.0000 C   0  0  0  0  0  0  0  0  0  0  0  0
    3.8042    3.8042   -0.0000 C   0  0  0  0  0  0  0  0  0  0  0  0
   -5.2382    4.5508   -0.0000 C   0  0  0  0  0  0  0  0  0  0  0  0
   -3.9464    2.2991   -0.0000 C   0  0  0  0  0  0  0  0  0  0  0  0
   -3.9464    6.7907   -0.0000 O   0  0  0  0  0  0  0  0  0  0  0  0
   -1.3629    6.7907   -0.0000 C   0  0  0  0  0  0  0  0  0  0  0  0
   -6.5418    3.8161   -0.0000 C   0  0  0  0  0  0  0  0  0  0  0  0
   -5.2619    1.5643   -0.0000 C   0  0  0  0  0  0  0  0  0  0  0  0
   -3.9583    8.2958   -0.0000 C   0  0  0  0  0  0  0  0  0  0  0  0
   -1.8488    8.2247   -0.0000 O   0  0  0  0  0  0  0  0  0  0  0  0
    0.1185    6.8144   -0.0000 C   0  0  0  0  0  0  0  0  0  0  0  0
   -7.9877    4.2901   -0.0000 O   0  0  0  0  0  0  0  0  0  0  0  0
   -6.5537    2.3228   -0.0000 C   0  0  0  0  0  0  0  0  0  0  0  0
   -5.2619    9.0543   -0.0000 O   0  0  0  0  0  0  0  0  0  0  0  0
   -0.6518    9.1254   -0.0000 C   0  0  0  0  0  0  0  0  0  0  0  0
    0.5570    8.2484   -0.0000 O   0  0  0  0  0  0  0  0  0  0  0  0
    0.8414    5.5226   -0.0000 C   0  0  0  0  0  0  0  0  0  0  0  0
   -8.8884    3.0931   -0.0000 C   0  0  0  0  0  0  0  0  0  0  0  0
   -7.9995    1.8725   -0.0000 O   0  0  0  0  0  0  0  0  0  0  0  0
   -5.2738   10.5594   -0.0000 C   0  0  0  0  0  0  0  0  0  0  0  0
   -1.7303   10.2038   -0.0000 C   0  0  0  0  0  0  0  0  0  0  0  0
    0.3911   10.2038   -0.0000 C   0  0  0  0  0  0  0  0  0  0  0  0
    2.3228    5.5226   -0.0000 O   0  0  0  0  0  0  0  0  0  0  0  0
  1  2  2  0  0  0  0
  2  3  1  0  0  0  0
  2  4  1  0  0  0  0
  3  5  1  0  0  0  0
  4  6  2  0  0  0  0
  4  7  1  0  0  0  0
  8  5  1  6  0  0  0
  6  9  1  0  0  0  0
  7 10  2  0  0  0  0
  8 11  1  0  0  0  0
  8 12  1  0  0  0  0
  9 13  2  0  0  0  0
 11 14  2  0  0  0  0
 11 15  1  0  0  0  0
 12 16  1  6  0  0  0
 12 17  1  0  0  0  0
 14 18  1  0  0  0  0
 15 19  2  0  0  0  0
 16 20  1  0  0  0  0
 17 21  1  6  0  0  0
 17 22  1  0  0  0  0
 18 23  1  0  0  0  0
 18 24  2  0  0  0  0
 20 25  1  0  0  0  0
 21 26  1  0  0  0  0
 22 27  1  0  0  0  0
 22 28  1  1  0  0  0
 23 29  1  0  0  0  0
 24 30  1  0  0  0  0
 25 31  1  0  0  0  0
 26 32  1  0  0  0  0
 26 33  1  0  0  0  0
 28 34  1  0  0  0  0
 10 13  1  0  0  0  0
 19 24  1  0  0  0  0
 26 27  1  0  0  0  0
 29 30  1  0  0  0  0
M  END
>  <MolRegNo>
620519

>  <m>
=

>  <Value>
1780

>  <Unit>
nM

>  <Type>
Ki

>  <pValue>
5.75

>  <Ligand Efficiency>
0

>  <Binding Efficiency>
0

>  <Surface Efficiency>
0

>  <Assay Index>
470042

>  <Assay Category>


>  <Assay Organism>
Homo sapiens

>  <Target ID>
17045

>  <Target Name>
Cytochrome P450 3A4

>  <Target Organism>
Homo sapiens

>  <Target Description>
Target is a single protein chain

>  <Sequence Accession>
P08684

>  <Reference>
Bioorg Med Chem Lett 20 (7), 2335-2339 (2010)

>  <Pubmed ID>
20189386

>  <DOI>
10.1016/j.bmcl.2010.01.157

$$$$
620520
Actelion Java MolfileCreator 1.0

 44 48  0  0  0  0  0  0  0  0999 V2000
    0.0000   -0.0000   -0.0000 S   0  0  0  0  0  0  0  0  0  0  0  0
   -1.4724   -0.3681   -0.0000 O   0  0  0  0  0  0  0  0  0  0  0  0
    0.3681    1.4605   -0.0000 O   0  0  0  0  0  0  0  0  0  0  0  0
   -0.7718   -1.2824   -0.0000 O   0  0  0  0  0  0  0  0  0  0  0  0
    1.4843   -0.0000   -0.0000 C   0  0  0  0  0  0  0  0  0  0  0  0
   -2.2798   -1.2587   -0.0000 C   0  0  0  0  0  0  0  0  0  0  0  0
    2.2086   -1.2943   -0.0000 C   0  0  0  0  0  0  0  0  0  0  0  0
    2.2205    1.3062   -0.0000 C   0  0  0  0  0  0  0  0  0  0  0  0
   -3.0279    0.0594   -0.0000 C   0  0  0  0  0  0  0  0  0  0  0  0
    3.6929   -1.2943   -0.0000 C   0  0  0  0  0  0  0  0  0  0  0  0
    3.7048    1.3062   -0.0000 C   0  0  0  0  0  0  0  0  0  0  0  0
   -2.5886    1.4962   -0.0000 O   0  0  0  0  0  0  0  0  0  0  0  0
   -4.5359    0.0594   -0.0000 C   0  0  0  0  0  0  0  0  0  0  0  0
    4.4410    0.0119   -0.0000 C   0  0  0  0  0  0  0  0  0  0  0  0
   -3.8116    2.3867   -0.0000 C   0  0  0  0  0  0  0  0  0  0  0  0
   -5.0228    1.4962   -0.0000 O   0  0  0  0  0  0  0  0  0  0  0  0
   -5.8421   -0.6768   -0.0000 C   0  0  0  0  0  0  0  0  0  0  0  0
    5.9252    0.0119   -0.0000 C   0  0  0  0  0  0  0  0  0  0  0  0
   -4.8922    3.4673   -0.0000 C   0  0  0  0  0  0  0  0  0  0  0  0
   -2.7667    3.4673   -0.0000 C   0  0  0  0  0  0  0  0  0  0  0  0
   -7.1483    0.0831   -0.0000 O   0  0  0  0  0  0  0  0  0  0  0  0
   -5.8540   -2.1611   -0.0000 C   0  0  0  0  0  0  0  0  0  0  0  0
   -7.1602    1.5911   -0.0000 C   0  0  0  0  0  0  0  0  0  0  0  0
   -7.1602   -2.8973   -0.0000 C   0  0  0  0  0  0  0  0  0  0  0  0
   -4.5716   -2.8973   -0.0000 C   0  0  0  0  0  0  0  0  0  0  0  0
   -8.4663    2.3511   -0.0000 O   0  0  0  0  0  0  0  0  0  0  0  0
   -8.4663   -2.1374   -0.0000 C   0  0  0  0  0  0  0  0  0  0  0  0
   -7.1720   -4.3935   -0.0000 C   0  0  0  0  0  0  0  0  0  0  0  0
   -4.5834   -4.3816   -0.0000 N   0  0  0  0  0  0  0  0  0  0  0  0
   -8.4782    3.8591   -0.0000 C   0  0  0  0  0  0  0  0  0  0  0  0
   -9.7725   -2.8736   -0.0000 C   0  0  0  0  0  0  0  0  0  0  0  0
   -8.4901   -5.1297   -0.0000 C   0  0  0  0  0  0  0  0  0  0  0  0
   -3.3010   -5.1178   -0.0000 C   0  0  0  0  0  0  0  0  0  0  0  0
  -11.2093   -2.3986   -0.0000 O   0  0  0  0  0  0  0  0  0  0  0  0
   -9.7844   -4.3697   -0.0000 C   0  0  0  0  0  0  0  0  0  0  0  0
   -3.3129   -6.6021   -0.0000 O   0  0  0  0  0  0  0  0  0  0  0  0
   -2.0186   -4.3578   -0.0000 C   0  0  0  0  0  0  0  0  0  0  0  0
  -12.1117   -3.5979   -0.0000 C   0  0  0  0  0  0  0  0  0  0  0  0
  -11.2330   -4.8209   -0.0000 O   0  0  0  0  0  0  0  0  0  0  0  0
   -0.7362   -5.0940   -0.0000 C   0  0  0  0  0  0  0  0  0  0  0  0
   -2.0424   -2.8498   -0.0000 C   0  0  0  0  0  0  0  0  0  0  0  0
    0.5462   -4.3341   -0.0000 C   0  0  0  0  0  0  0  0  0  0  0  0
   -0.7718   -2.0780   -0.0000 C   0  0  0  0  0  0  0  0  0  0  0  0
    0.5343   -2.8261   -0.0000 C   0  0  0  0  0  0  0  0  0  0  0  0
  1  2  2  0  0  0  0
  1  3  2  0  0  0  0
  1  4  1  0  0  0  0
  1  5  1  0  0  0  0
  4  6  1  0  0  0  0
  5  7  2  0  0  0  0
  5  8  1  0  0  0  0
  9  6  1  1  0  0  0
  7 10  1  0  0  0  0
  8 11  2  0  0  0  0
  9 12  1  0  0  0  0
  9 13  1  0  0  0  0
 10 14  2  0  0  0  0
 12 15  1  0  0  0  0
 13 16  1  6  0  0  0
 13 17  1  0  0  0  0
 14 18  1  0  0  0  0
 15 19  1  0  0  0  0
 15 20  1  0  0  0  0
 17 21  1  6  0  0  0
 17 22  1  0  0  0  0
 21 23  1  0  0  0  0
 22 24  1  0  0  0  0
 22 25  1  6  0  0  0
 23 26  1  0  0  0  0
 24 27  2  0  0  0  0
 24 28  1  0  0  0  0
 25 29  1  0  0  0  0
 26 30  1  0  0  0  0
 27 31  1  0  0  0  0
 28 32  2  0  0  0  0
 29 33  1  0  0  0  0
 31 34  1  0  0  0  0
 31 35  2  0  0  0  0
 33 36  2  0  0  0  0
 33 37  1  0  0  0  0
 34 38  1  0  0  0  0
 35 39  1  0  0  0  0
 37 40  2  0  0  0  0
 37 41  1  0  0  0  0
 40 42  1  0  0  0  0
 41 43  2  0  0  0  0
 42 44  2  0  0  0  0
 11 14  1  0  0  0  0
 15 16  1  0  0  0  0
 32 35  1  0  0  0  0
 38 39  1  0  0  0  0
 43 44  1  0  0  0  0
M  END
>  <MolRegNo>
620520

>  <m>
=

>  <Value>
70

>  <Unit>
nM

>  <Type>
Ki

>  <pValue>
7.16

>  <Ligand Efficiency>
0

>  <Binding Efficiency>
0

>  <Surface Efficiency>
0

>  <Assay Index>
470042

>  <Assay Category>


>  <Assay Organism>
Homo sapiens

>  <Target ID>
17045

>  <Target Name>
Cytochrome P450 3A4

>  <Target Organism>
Homo sapiens

>  <Target Description>
Target is a single protein chain

>  <Sequence Accession>
P08684

>  <Reference>
Bioorg Med Chem Lett 20 (7), 2335-2339 (2010)

>  <Pubmed ID>
20189386

>  <DOI>
10.1016/j.bmcl.2010.01.157

$$$$
471990
Actelion Java MolfileCreator 1.0

 27 29  0  0  0  0  0  0  0  0999 V2000
    0.0000   -0.0000   -0.0000 O   0  0  0  0  0  0  0  0  0  0  0  0
    1.3238   -0.7156   -0.0000 C   0  0  0  0  0  0  0  0  0  0  0  0
    2.5999    0.0835   -0.0000 O   0  0  0  0  0  0  0  0  0  0  0  0
    1.3477   -2.2063   -0.0000 C   0  0  0  0  0  0  0  0  0  0  0  0
    3.9118   -0.6202   -0.0000 C   0  0  0  0  0  0  0  0  0  0  0  0
    2.6595   -2.9219   -0.0000 C   0  0  0  0  0  0  0  0  0  0  0  0
    3.9356   -2.1229   -0.0000 C   0  0  0  0  0  0  0  0  0  0  0  0
    5.1879    0.1789   -0.0000 C   0  0  0  0  0  0  0  0  0  0  0  0
    5.2475   -2.8265   -0.0000 C   0  0  0  0  0  0  0  0  0  0  0  0
    6.4998   -0.5367   -0.0000 C   0  0  0  0  0  0  0  0  0  0  0  0
    5.2714   -4.3292   -0.0000 O   0  0  0  0  0  0  0  0  0  0  0  0
    6.5236   -2.0274   -0.0000 C   0  0  0  0  0  0  0  0  0  0  0  0
    7.9190   -0.0239   -0.0000 O   0  0  0  0  0  0  0  0  0  0  0  0
    6.5952   -5.0448   -0.0000 C   0  0  0  0  0  0  0  0  0  0  0  0
    7.9667   -2.4568   -0.0000 C   0  0  0  0  0  0  0  0  0  0  0  0
    8.8254   -1.2165   -0.0000 C   0  0  0  0  0  0  0  0  0  0  0  0
    6.6190   -6.5355   -0.0000 C   0  0  0  0  0  0  0  0  0  0  0  0
    7.9428   -7.2511   -0.0000 C   0  0  0  0  0  0  0  0  0  0  0  0
    7.9667   -8.7538   -0.0000 C   0  0  0  0  0  0  0  0  0  0  0  0
    9.2189   -6.4521   -0.0000 C   0  0  0  0  0  0  0  0  0  0  0  0
    9.2786   -9.4574   -0.0000 C   0  0  0  0  0  0  0  0  0  0  0  0
    9.3024  -10.9601   -0.0000 C   0  0  0  0  0  0  0  0  0  0  0  0
    8.0025  -11.7353   -0.0000 O   0  0  0  0  0  0  0  0  0  0  0  0
   10.6143  -11.6757   -0.0000 C   0  0  0  0  0  0  0  0  0  0  0  0
   12.0573  -12.0573   -0.0000 O   0  0  0  0  0  0  0  0  0  0  0  0
   10.6381  -13.1665   -0.0000 C   0  0  0  0  0  0  0  0  0  0  0  0
   11.8904  -10.8767   -0.0000 C   0  0  0  0  0  0  0  0  0  0  0  0
  1  2  2  0  0  0  0
  2  3  1  0  0  0  0
  2  4  1  0  0  0  0
  3  5  1  0  0  0  0
  4  6  2  0  0  0  0
  5  7  2  0  0  0  0
  5  8  1  0  0  0  0
  7  9  1  0  0  0  0
  8 10  2  0  0  0  0
  9 11  1  0  0  0  0
  9 12  2  0  0  0  0
 10 13  1  0  0  0  0
 11 14  1  0  0  0  0
 12 15  1  0  0  0  0
 13 16  1  0  0  0  0
 14 17  1  0  0  0  0
 17 18  2  0  0  0  0
 18 19  1  0  0  0  0
 18 20  1  0  0  0  0
 19 21  1  0  0  0  0
 21 22  1  0  0  0  0
 22 23  1  0  0  0  0
 22 24  1  0  0  0  0
 24 25  1  0  0  0  0
 24 26  1  0  0  0  0
 24 27  1  0  0  0  0
  6  7  1  0  0  0  0
 10 12  1  0  0  0  0
 15 16  2  0  0  0  0
M  END
>  <MolRegNo>
471990

>  <m>
=

>  <Value>
59000

>  <Unit>
nM

>  <Type>
Ki

>  <pValue>
4.23

>  <Ligand Efficiency>
0

>  <Binding Efficiency>
0

>  <Surface Efficiency>
0

>  <Assay Index>
581926

>  <Assay Category>


>  <Assay Organism>
Homo sapiens

>  <Target ID>
17045

>  <Target Name>
Cytochrome P450 3A4

>  <Target Organism>
Homo sapiens

>  <Target Description>
Target is a single protein chain

>  <Sequence Accession>
P08684

>  <Reference>
Curr Drug Metab 6 (1), 413-454 (2005)

>  <Pubmed ID>
16248836

>  <DOI>
10.2174/138920005774330639

$$$$
61315
Actelion Java MolfileCreator 1.0

 29 33  0  0  1  0  0  0  0  0999 V2000
    0.0000   -0.0000   -0.0000 O   0  0  0  0  0  0  0  0  0  0  0  0
   -0.0188   -1.4318   -0.0000 C   0  0  0  0  0  0  0  0  0  0  0  0
   -1.2811   -2.1289   -0.0000 N   0  0  0  0  0  0  0  0  0  0  0  0
    1.2434   -2.1289   -0.0000 C   0  0  0  0  0  0  0  0  0  0  0  0
   -1.2999   -3.5607   -0.0000 C   0  0  0  0  0  0  0  0  0  0  0  0
   -2.5245   -1.1681   -0.0000 C   0  0  0  0  0  0  0  0  0  0  0  0
    1.2246   -3.5419   -0.0000 C   0  0  0  0  0  0  0  0  0  0  0  0
    2.4680   -1.3941   -0.0000 C   0  0  0  0  0  0  0  0  0  0  0  0
   -3.7114   -3.5230   -0.0000 C   0  0  0  0  0  0  0  0  0  0  0  0
   -0.0754   -4.2578   -0.0000 C   0  0  0  0  0  0  0  0  0  0  0  0
   -3.7114   -2.0158   -0.0000 C   0  0  0  0  0  0  0  0  0  0  0  0
    2.4680   -4.2578   -0.0000 C   0  0  0  0  0  0  0  0  0  0  0  0
    3.7114   -2.0912   -0.0000 O   0  0  0  0  0  0  0  0  0  0  0  0
   -5.1809   -4.1824   -0.0000 N   0  0  0  0  0  0  0  0  0  0  0  0
   -5.0114   -1.1869   -0.0000 C   0  0  0  0  0  0  0  0  0  0  0  0
    3.3723   -5.3693   -0.0000 O   0  0  0  0  0  0  0  0  0  0  0  0
    3.7114   -3.5042   -0.0000 C   0  0  0  0  0  0  0  0  0  0  0  0
    1.4883   -5.3693   -0.0000 C   0  0  0  0  0  0  0  0  0  0  0  0
   -6.4620   -3.4100   -0.0000 C   0  0  0  0  0  0  0  0  0  0  0  0
   -6.4432   -2.0912   -0.0000 C   0  0  0  0  0  0  0  0  0  0  0  0
   -5.0302    0.2449   -0.0000 C   0  0  0  0  0  0  0  0  0  0  0  0
    4.9548   -4.2201   -0.0000 O   0  0  0  0  0  0  0  0  0  0  0  0
    1.9970   -6.7258   -0.0000 C   0  0  0  0  0  0  0  0  0  0  0  0
   -7.8750   -4.1070   -0.0000 C   0  0  0  0  0  0  0  0  0  0  0  0
   -7.8561   -1.2057   -0.0000 C   0  0  0  0  0  0  0  0  0  0  0  0
   -3.9375    1.1869   -0.0000 C   0  0  0  0  0  0  0  0  0  0  0  0
   -9.1561   -3.3346   -0.0000 C   0  0  0  0  0  0  0  0  0  0  0  0
   -9.1372   -1.8840   -0.0000 C   0  0  0  0  0  0  0  0  0  0  0  0
  -10.2676   -1.1115   -0.0000 O   0  0  0  0  0  0  0  0  0  0  0  0
  1  2  2  0  0  0  0
  2  3  1  0  0  0  0
  2  4  1  0  0  0  0
  3  5  1  0  0  0  0
  3  6  1  0  0  0  0
  4  7  2  0  0  0  0
  4  8  1  0  0  0  0
  5  9  1  0  0  0  0
  5 10  2  0  0  0  0
  6 11  1  0  0  0  0
  7 12  1  0  0  0  0
  8 13  1  0  0  0  0
  9 14  2  0  0  0  0
 11 15  2  0  0  0  0
 12 16  1  1  0  0  0
 12 17  1  0  0  0  0
 12 18  1  0  0  0  0
 14 19  1  0  0  0  0
 15 20  1  0  0  0  0
 15 21  1  0  0  0  0
 17 22  2  0  0  0  0
 18 23  1  0  0  0  0
 19 24  2  0  0  0  0
 20 25  2  0  0  0  0
 21 26  1  0  0  0  0
 24 27  1  0  0  0  0
 25 28  1  0  0  0  0
 28 29  1  0  0  0  0
  7 10  1  0  0  0  0
  9 11  1  0  0  0  0
 13 17  1  0  0  0  0
 19 20  1  0  0  0  0
 27 28  2  0  0  0  0
M  END
>  <MolRegNo>
61315

>  <m>
=

>  <Value>
26000

>  <Unit>
nM

>  <Type>
Ki

>  <pValue>
4.58

>  <Ligand Efficiency>
0

>  <Binding Efficiency>
0

>  <Surface Efficiency>
0

>  <Assay Index>
581934

>  <Assay Category>


>  <Assay Organism>
Homo sapiens

>  <Target ID>
17045

>  <Target Name>
Cytochrome P450 3A4

>  <Target Organism>
Homo sapiens

>  <Target Description>
Target is a single protein chain

>  <Sequence Accession>
P08684

>  <Reference>
Curr Drug Metab 6 (1), 413-454 (2005)

>  <Pubmed ID>
16248836

>  <DOI>
10.2174/138920005774330639

$$$$
463229
Actelion Java MolfileCreator 1.0

 34 40  0  0  0  0  0  0  0  0999 V2000
    0.0000   -0.0000   -0.0000 O   0  0  0  0  0  0  0  0  0  0  0  0
   -0.0118    1.5027   -0.0000 C   0  0  0  0  0  0  0  0  0  0  0  0
   -1.3252    2.2482   -0.0000 O   0  0  0  0  0  0  0  0  0  0  0  0
    1.2661    2.2718   -0.0000 C   0  0  0  0  0  0  0  0  0  0  0  0
   -1.3489    3.7627   -0.0000 C   0  0  0  0  0  0  0  0  0  0  0  0
    2.5440    3.0409   -0.0000 O   0  0  0  0  0  0  0  0  0  0  0  0
    1.2424    3.7864   -0.0000 C   0  0  0  0  0  0  0  0  0  0  0  0
   -2.6623    4.5082   -0.0000 C   0  0  0  0  0  0  0  0  0  0  0  0
   -0.0710    4.5318   -0.0000 C   0  0  0  0  0  0  0  0  0  0  0  0
    2.5203    4.5555   -0.0000 C   0  0  0  0  0  0  0  0  0  0  0  0
   -4.0349    3.9047   -0.0000 C   0  0  0  0  0  0  0  0  0  0  0  0
   -2.8398    6.0109   -0.0000 C   0  0  0  0  0  0  0  0  0  0  0  0
   -0.0828    6.0345   -0.0000 C   0  0  0  0  0  0  0  0  0  0  0  0
   -0.0947    3.0409   -0.0000 C   0  0  0  0  0  0  0  0  0  0  0  0
    3.8100    3.8337   -0.0000 C   0  0  0  0  0  0  0  0  0  0  0  0
    2.4966    6.0700   -0.0000 C   0  0  0  0  0  0  0  0  0  0  0  0
    3.5734    5.6441   -0.0000 C   0  0  0  0  0  0  0  0  0  0  0  0
   -5.0524    5.0170   -0.0000 O   0  0  0  0  0  0  0  0  0  0  0  0
   -4.3188    6.3185   -0.0000 C   0  0  0  0  0  0  0  0  0  0  0  0
    1.1951    6.8036   -0.0000 C   0  0  0  0  0  0  0  0  0  0  0  0
    3.7982    2.3547   -0.0000 O   0  0  0  0  0  0  0  0  0  0  0  0
    5.0879    4.6028   -0.0000 C   0  0  0  0  0  0  0  0  0  0  0  0
    3.7745    6.8391   -0.0000 C   0  0  0  0  0  0  0  0  0  0  0  0
    5.0643    6.1174   -0.0000 C   0  0  0  0  0  0  0  0  0  0  0  0
    4.0585    8.3182   -0.0000 C   0  0  0  0  0  0  0  0  0  0  0  0
    2.3547    6.3777   -0.0000 C   0  0  0  0  0  0  0  0  0  0  0  0
    6.1529    7.1350   -0.0000 C   0  0  0  0  0  0  0  0  0  0  0  0
    5.5376    8.4957   -0.0000 O   0  0  0  0  0  0  0  0  0  0  0  0
    2.9226    9.3240   -0.0000 C   0  0  0  0  0  0  0  0  0  0  0  0
    1.2187    7.3834   -0.0000 O   0  0  0  0  0  0  0  0  0  0  0  0
    7.4308    7.9041   -0.0000 C   0  0  0  0  0  0  0  0  0  0  0  0
    7.0285    5.9399   -0.0000 C   0  0  0  0  0  0  0  0  0  0  0  0
    1.4909    8.8625   -0.0000 C   0  0  0  0  0  0  0  0  0  0  0  0
    0.3550    9.8682   -0.0000 O   0  0  0  0  0  0  0  0  0  0  0  0
  1  2  2  0  0  0  0
  2  3  1  0  0  0  0
  2  4  1  0  0  0  0
  3  5  1  0  0  0  0
  4  6  1  1  0  0  0
  4  7  1  0  0  0  0
  5  8  1  6  0  0  0
  5  9  1  0  0  0  0
  7 10  1  0  0  0  0
  8 11  2  0  0  0  0
  8 12  1  0  0  0  0
  9 13  1  0  0  0  0
  9 14  1  6  0  0  0
 10 15  1  0  0  0  0
 10 16  1  0  0  0  0
 10 17  1  1  0  0  0
 11 18  1  0  0  0  0
 12 19  2  0  0  0  0
 13 20  1  0  0  0  0
 15 21  2  0  0  0  0
 15 22  1  0  0  0  0
 16 23  1  0  0  0  0
 24 22  1  1  0  0  0
 23 25  1  0  0  0  0
 23 26  1  1  0  0  0
 24 27  1  0  0  0  0
 25 28  1  1  0  0  0
 25 29  1  0  0  0  0
 26 30  1  0  0  0  0
 27 31  1  0  0  0  0
 27 32  1  0  0  0  0
 29 33  1  0  0  0  0
 33 34  2  0  0  0  0
  7  6  1  1  0  0  0
  7  9  1  0  0  0  0
 16 20  1  1  0  0  0
 18 19  1  0  0  0  0
 23 24  1  0  0  0  0
 27 28  1  0  0  0  0
 30 33  1  0  0  0  0
M  END
>  <MolRegNo>
463229

>  <m>
=

>  <Value>
23200

>  <Unit>
nM

>  <Type>
Ki

>  <pValue>
4.63

>  <Ligand Efficiency>
0

>  <Binding Efficiency>
0

>  <Surface Efficiency>
0

>  <Assay Index>
581937

>  <Assay Category>


>  <Assay Organism>
Homo sapiens

>  <Target ID>
17045

>  <Target Name>
Cytochrome P450 3A4

>  <Target Organism>
Homo sapiens

>  <Target Description>
Target is a single protein chain

>  <Sequence Accession>
P08684

>  <Reference>
Curr Drug Metab 6 (1), 413-454 (2005)

>  <Pubmed ID>
16248836

>  <DOI>
10.2174/138920005774330639

$$$$
1122143
Actelion Java MolfileCreator 1.0

 12 12  0  0  0  0  0  0  0  0999 V2000
    0.0000   -0.0000   -0.0000 O   0  0  0  0  0  0  0  0  0  0  0  0
    0.3749   -1.4409   -0.0000 C   0  0  0  0  0  0  0  0  0  0  0  0
   -0.7029   -2.4953   -0.0000 C   0  0  0  0  0  0  0  0  0  0  0  0
    1.8158   -1.8158   -0.0000 C   0  0  0  0  0  0  0  0  0  0  0  0
   -0.4803   -3.9713   -0.0000 C   0  0  0  0  0  0  0  0  0  0  0  0
   -2.2024   -2.2493   -0.0000 C   0  0  0  0  0  0  0  0  0  0  0  0
    2.8701   -0.7380   -0.0000 C   0  0  0  0  0  0  0  0  0  0  0  0
   -1.8392   -4.6391   -0.0000 O   0  0  0  0  0  0  0  0  0  0  0  0
   -2.8936   -3.5848   -0.0000 C   0  0  0  0  0  0  0  0  0  0  0  0
    4.3111   -1.1129   -0.0000 C   0  0  0  0  0  0  0  0  0  0  0  0
    4.6860   -2.5538   -0.0000 O   0  0  0  0  0  0  0  0  0  0  0  0
    5.3654   -0.0351   -0.0000 C   0  0  0  0  0  0  0  0  0  0  0  0
  1  2  2  0  0  0  0
  2  3  1  0  0  0  0
  2  4  1  0  0  0  0
  3  5  2  0  0  0  0
  3  6  1  0  0  0  0
  4  7  1  0  0  0  0
  5  8  1  0  0  0  0
  6  9  2  0  0  0  0
  7 10  1  0  0  0  0
 10 11  1  0  0  0  0
 10 12  1  0  0  0  0
  8  9  1  0  0  0  0
M  END
>  <MolRegNo>
1122143

>  <m>
=

>  <Value>
20000

>  <Unit>
nM

>  <Type>
Ki

>  <pValue>
4.7

>  <Ligand Efficiency>
0

>  <Binding Efficiency>
0

>  <Surface Efficiency>
0

>  <Assay Index>
581940

>  <Assay Category>


>  <Assay Organism>
Homo sapiens

>  <Target ID>
17045

>  <Target Name>
Cytochrome P450 3A4

>  <Target Organism>
Homo sapiens

>  <Target Description>
Target is a single protein chain

>  <Sequence Accession>
P08684

>  <Reference>
Curr Drug Metab 6 (1), 413-454 (2005)

>  <Pubmed ID>
16248836

>  <DOI>
10.2174/138920005774330639

$$$$
422225
Actelion Java MolfileCreator 1.0

 39 43  0  0  0  0  0  0  0  0999 V2000
    0.0000   -0.0000   -0.0000 O   0  0  0  0  0  0  0  0  0  0  0  0
    1.4768   -0.1890   -0.0000 C   0  0  0  0  0  0  0  0  0  0  0  0
    2.3747    1.0042   -0.0000 O   0  0  0  0  0  0  0  0  0  0  0  0
    2.0321   -1.5595   -0.0000 C   0  0  0  0  0  0  0  0  0  0  0  0
    1.7958    2.3983   -0.0000 C   0  0  0  0  0  0  0  0  0  0  0  0
    1.1105   -2.7291   -0.0000 C   0  0  0  0  0  0  0  0  0  0  0  0
    3.4970   -1.7367   -0.0000 C   0  0  0  0  0  0  0  0  0  0  0  0
    0.2835    2.4101   -0.0000 C   0  0  0  0  0  0  0  0  0  0  0  0
    2.8354    3.4616   -0.0000 C   0  0  0  0  0  0  0  0  0  0  0  0
    1.6658   -4.0995   -0.0000 C   0  0  0  0  0  0  0  0  0  0  0  0
    4.0641   -3.0953   -0.0000 C   0  0  0  0  0  0  0  0  0  0  0  0
   -0.7916    3.4734   -0.0000 C   0  0  0  0  0  0  0  0  0  0  0  0
   -0.1181    0.9806   -0.0000 C   0  0  0  0  0  0  0  0  0  0  0  0
    3.8751    2.4219   -0.0000 O   0  0  0  0  0  0  0  0  0  0  0  0
    2.8236    4.9738   -0.0000 C   0  0  0  0  0  0  0  0  0  0  0  0
    4.2649    3.8751   -0.0000 C   0  0  0  0  0  0  0  0  0  0  0  0
    3.1426   -4.2886   -0.0000 C   0  0  0  0  0  0  0  0  0  0  0  0
   -2.2447    3.1071   -0.0000 C   0  0  0  0  0  0  0  0  0  0  0  0
   -0.8034    4.9856   -0.0000 C   0  0  0  0  0  0  0  0  0  0  0  0
   -1.5831    0.6025   -0.0000 C   0  0  0  0  0  0  0  0  0  0  0  0
    1.7603    6.0489   -0.0000 C   0  0  0  0  0  0  0  0  0  0  0  0
    4.1941    5.5527   -0.0000 C   0  0  0  0  0  0  0  0  0  0  0  0
   -3.3080    4.1822   -0.0000 O   0  0  0  0  0  0  0  0  0  0  0  0
   -2.6464    1.6776   -0.0000 C   0  0  0  0  0  0  0  0  0  0  0  0
   -2.2565    5.3873   -0.0000 C   0  0  0  0  0  0  0  0  0  0  0  0
    0.2363    6.0607   -0.0000 C   0  0  0  0  0  0  0  0  0  0  0  0
   -1.9848   -0.8270   -0.0000 O   0  0  0  0  0  0  0  0  0  0  0  0
   -4.7611    3.8042   -0.0000 C   0  0  0  0  0  0  0  0  0  0  0  0
   -4.0995    1.3114   -0.0000 O   0  0  0  0  0  0  0  0  0  0  0  0
   -3.7687    5.3873   -0.0000 O   0  0  0  0  0  0  0  0  0  0  0  0
   -2.6582    6.8523   -0.0000 C   0  0  0  0  0  0  0  0  0  0  0  0
   -0.1654    7.5139   -0.0000 C   0  0  0  0  0  0  0  0  0  0  0  0
   -3.4379   -1.2051   -0.0000 C   0  0  0  0  0  0  0  0  0  0  0  0
   -5.1628    2.3865   -0.0000 C   0  0  0  0  0  0  0  0  0  0  0  0
   -4.5367    6.6869   -0.0000 C   0  0  0  0  0  0  0  0  0  0  0  0
   -4.0050    7.5493   -0.0000 O   0  0  0  0  0  0  0  0  0  0  0  0
   -1.6067    7.9274   -0.0000 C   0  0  0  0  0  0  0  0  0  0  0  0
   -3.7806    9.0379   -0.0000 C   0  0  0  0  0  0  0  0  0  0  0  0
   -2.2920    9.2742   -0.0000 O   0  0  0  0  0  0  0  0  0  0  0  0
  1  2  2  0  0  0  0
  2  3  1  0  0  0  0
  2  4  1  0  0  0  0
  5  3  1  1  0  0  0
  4  6  2  0  0  0  0
  4  7  1  0  0  0  0
  5  8  1  0  0  0  0
  5  9  1  0  0  0  0
  6 10  1  0  0  0  0
  7 11  2  0  0  0  0
  8 12  2  0  0  0  0
  8 13  1  0  0  0  0
  9 14  1  6  0  0  0
  9 15  1  0  0  0  0
  9 16  1  0  0  0  0
 10 17  2  0  0  0  0
 12 18  1  0  0  0  0
 12 19  1  0  0  0  0
 13 20  2  0  0  0  0
 15 21  1  0  0  0  0
 15 22  1  6  0  0  0
 18 23  1  0  0  0  0
 18 24  2  0  0  0  0
 19 25  2  0  0  0  0
 19 26  1  0  0  0  0
 20 27  1  0  0  0  0
 23 28  1  0  0  0  0
 24 29  1  0  0  0  0
 25 30  1  0  0  0  0
 25 31  1  0  0  0  0
 26 32  2  0  0  0  0
 27 33  1  0  0  0  0
 29 34  1  0  0  0  0
 30 35  1  0  0  0  0
 31 36  1  0  0  0  0
 31 37  2  0  0  0  0
 36 38  1  0  0  0  0
 37 39  1  0  0  0  0
 11 17  1  0  0  0  0
 20 24  1  0  0  0  0
 21 26  1  0  0  0  0
 32 37  1  0  0  0  0
 38 39  1  0  0  0  0
M  END
>  <MolRegNo>
422225

>  <m>
=

>  <Value>
399

>  <Unit>
nM

>  <Type>
Ki

>  <pValue>
6.4

>  <Ligand Efficiency>
0

>  <Binding Efficiency>
0

>  <Surface Efficiency>
0

>  <Assay Index>
581941

>  <Assay Category>


>  <Assay Organism>
Homo sapiens

>  <Target ID>
17045

>  <Target Name>
Cytochrome P450 3A4

>  <Target Organism>
Homo sapiens

>  <Target Description>
Target is a single protein chain

>  <Sequence Accession>
P08684

>  <Reference>
Curr Drug Metab 6 (1), 413-454 (2005)

>  <Pubmed ID>
16248836

>  <DOI>
10.2174/138920005774330639

$$$$
1122135
Actelion Java MolfileCreator 1.0

 26 28  0  0  0  0  0  0  0  0999 V2000
    0.0000   -0.0000   -0.0000 O   0  0  0  0  0  0  0  0  0  0  0  0
   -1.3075   -0.7317   -0.0000 C   0  0  0  0  0  0  0  0  0  0  0  0
    1.2955   -0.7077   -0.0000 C   0  0  0  0  0  0  0  0  0  0  0  0
   -1.2955   -2.2311   -0.0000 C   0  0  0  0  0  0  0  0  0  0  0  0
   -2.5909    0.0240   -0.0000 C   0  0  0  0  0  0  0  0  0  0  0  0
    2.5549    0.0720   -0.0000 C   0  0  0  0  0  0  0  0  0  0  0  0
   -2.6029   -2.9508   -0.0000 C   0  0  0  0  0  0  0  0  0  0  0  0
   -3.9104   -0.7077   -0.0000 C   0  0  0  0  0  0  0  0  0  0  0  0
    3.8624   -0.6837   -0.0000 N   0  0  0  0  0  0  0  0  0  0  0  0
   -3.9344   -2.2071   -0.0000 C   0  0  0  0  0  0  0  0  0  0  0  0
   -5.2179   -2.9388   -0.0000 C   0  0  0  0  0  0  0  0  0  0  0  0
   -5.2298   -4.4382   -0.0000 C   0  0  0  0  0  0  0  0  0  0  0  0
   -6.5613   -2.2071   -0.0000 C   0  0  0  0  0  0  0  0  0  0  0  0
   -6.5493   -5.1939   -0.0000 C   0  0  0  0  0  0  0  0  0  0  0  0
   -3.9464   -5.1819   -0.0000 C   0  0  0  0  0  0  0  0  0  0  0  0
   -6.5733   -0.6717   -0.0000 C   0  0  0  0  0  0  0  0  0  0  0  0
   -7.8448   -2.9388   -0.0000 C   0  0  0  0  0  0  0  0  0  0  0  0
   -6.5493   -6.6932   -0.0000 C   0  0  0  0  0  0  0  0  0  0  0  0
   -3.9464   -6.6812   -0.0000 C   0  0  0  0  0  0  0  0  0  0  0  0
   -7.8927    0.0840   -0.0000 C   0  0  0  0  0  0  0  0  0  0  0  0
   -5.2778    0.0840   -0.0000 C   0  0  0  0  0  0  0  0  0  0  0  0
   -9.2002   -2.2431   -0.0000 C   0  0  0  0  0  0  0  0  0  0  0  0
   -5.2778   -7.4249   -0.0000 C   0  0  0  0  0  0  0  0  0  0  0  0
   -7.8808    1.5474   -0.0000 C   0  0  0  0  0  0  0  0  0  0  0  0
   -5.2778    1.5474   -0.0000 C   0  0  0  0  0  0  0  0  0  0  0  0
   -6.6213    2.3270   -0.0000 C   0  0  0  0  0  0  0  0  0  0  0  0
  1  2  1  0  0  0  0
  1  3  1  0  0  0  0
  2  4  2  0  0  0  0
  2  5  1  0  0  0  0
  3  6  1  0  0  0  0
  4  7  1  0  0  0  0
  5  8  2  0  0  0  0
  6  9  1  0  0  0  0
  7 10  2  0  0  0  0
 10 11  1  0  0  0  0
 11 12  1  0  0  0  0
 11 13  2  0  0  0  0
 12 14  2  0  0  0  0
 12 15  1  0  0  0  0
 13 16  1  0  0  0  0
 13 17  1  0  0  0  0
 14 18  1  0  0  0  0
 15 19  2  0  0  0  0
 16 20  2  0  0  0  0
 16 21  1  0  0  0  0
 17 22  1  0  0  0  0
 18 23  2  0  0  0  0
 20 24  1  0  0  0  0
 21 25  2  0  0  0  0
 24 26  2  0  0  0  0
  8 10  1  0  0  0  0
 19 23  1  0  0  0  0
 25 26  1  0  0  0  0
M  END
>  <MolRegNo>
1122135

>  <m>
=

>  <Value>
12000

>  <Unit>
nM

>  <Type>
Ki

>  <pValue>
4.92

>  <Ligand Efficiency>
0

>  <Binding Efficiency>
0

>  <Surface Efficiency>
0

>  <Assay Index>
581944

>  <Assay Category>


>  <Assay Organism>
Homo sapiens

>  <Target ID>
17045

>  <Target Name>
Cytochrome P450 3A4

>  <Target Organism>
Homo sapiens

>  <Target Description>
Target is a single protein chain

>  <Sequence Accession>
P08684

>  <Reference>
Curr Drug Metab 6 (1), 413-454 (2005)

>  <Pubmed ID>
16248836

>  <DOI>
10.2174/138920005774330639

$$$$
1122141
Actelion Java MolfileCreator 1.0

 52 57  0  0  0  0  0  0  0  0999 V2000
    0.0000   -0.0000   -0.0000 O   0  0  0  0  0  0  0  0  0  0  0  0
    1.2939   -0.7478   -0.0000 C   0  0  0  0  0  0  0  0  0  0  0  0
    2.5878    0.0119   -0.0000 O   0  0  0  0  0  0  0  0  0  0  0  0
    1.2820   -2.2435   -0.0000 C   0  0  0  0  0  0  0  0  0  0  0  0
    3.8816   -0.7360   -0.0000 C   0  0  0  0  0  0  0  0  0  0  0  0
    2.5759   -2.9795   -0.0000 C   0  0  0  0  0  0  0  0  0  0  0  0
    3.8698   -2.2316   -0.0000 C   0  0  0  0  0  0  0  0  0  0  0  0
    5.1755    0.0237   -0.0000 C   0  0  0  0  0  0  0  0  0  0  0  0
    5.1637   -2.9795   -0.0000 C   0  0  0  0  0  0  0  0  0  0  0  0
    6.4694   -0.7122   -0.0000 C   0  0  0  0  0  0  0  0  0  0  0  0
    5.1518   -4.4752   -0.0000 O   0  0  0  0  0  0  0  0  0  0  0  0
    6.4575   -2.2198   -0.0000 C   0  0  0  0  0  0  0  0  0  0  0  0
    7.8939   -0.2374   -0.0000 O   0  0  0  0  0  0  0  0  0  0  0  0
    6.4457   -5.2111   -0.0000 C   0  0  0  0  0  0  0  0  0  0  0  0
    7.8820   -2.6709   -0.0000 C   0  0  0  0  0  0  0  0  0  0  0  0
    8.7723   -1.4482   -0.0000 C   0  0  0  0  0  0  0  0  0  0  0  0
    7.7395   -4.4514   -0.0000 C   0  0  0  0  0  0  0  0  0  0  0  0
    9.0334   -5.1874   -0.0000 C   0  0  0  0  0  0  0  0  0  0  0  0
   10.3273   -4.4277   -0.0000 C   0  0  0  0  0  0  0  0  0  0  0  0
    9.0216   -6.6831   -0.0000 C   0  0  0  0  0  0  0  0  0  0  0  0
   11.6212   -5.1637   -0.0000 C   0  0  0  0  0  0  0  0  0  0  0  0
   12.9151   -4.4039   -0.0000 C   0  0  0  0  0  0  0  0  0  0  0  0
   14.2090   -5.1399   -0.0000 O   0  0  0  0  0  0  0  0  0  0  0  0
   12.9032   -2.8845   -0.0000 C   0  0  0  0  0  0  0  0  0  0  0  0
   15.5028   -4.3802   -0.0000 C   0  0  0  0  0  0  0  0  0  0  0  0
   11.5856   -2.1248   -0.0000 C   0  0  0  0  0  0  0  0  0  0  0  0
   14.1971   -2.1248   -0.0000 C   0  0  0  0  0  0  0  0  0  0  0  0
   16.7967   -5.1162   -0.0000 C   0  0  0  0  0  0  0  0  0  0  0  0
   14.4226   -3.3000   -0.0000 C   0  0  0  0  0  0  0  0  0  0  0  0
   15.8827   -2.9083   -0.0000 C   0  0  0  0  0  0  0  0  0  0  0  0
   16.7848   -6.6119   -0.0000 O   0  0  0  0  0  0  0  0  0  0  0  0
   18.0906   -4.3565   -0.0000 C   0  0  0  0  0  0  0  0  0  0  0  0
   19.3845   -5.0924   -0.0000 C   0  0  0  0  0  0  0  0  0  0  0  0
   20.6784   -4.3327   -0.0000 C   0  0  0  0  0  0  0  0  0  0  0  0
   21.9722   -5.0687   -0.0000 C   0  0  0  0  0  0  0  0  0  0  0  0
   20.6665   -2.8133   -0.0000 C   0  0  0  0  0  0  0  0  0  0  0  0
   23.2661   -4.3090   -0.0000 C   0  0  0  0  0  0  0  0  0  0  0  0
   24.5600   -5.0449   -0.0000 O   0  0  0  0  0  0  0  0  0  0  0  0
   24.5481   -6.5406   -0.0000 C   0  0  0  0  0  0  0  0  0  0  0  0
   25.8420   -7.2885   -0.0000 C   0  0  0  0  0  0  0  0  0  0  0  0
   23.2305   -7.2885   -0.0000 C   0  0  0  0  0  0  0  0  0  0  0  0
   25.8301   -8.7841   -0.0000 C   0  0  0  0  0  0  0  0  0  0  0  0
   27.1359   -6.5169   -0.0000 C   0  0  0  0  0  0  0  0  0  0  0  0
   23.2186   -8.7841   -0.0000 C   0  0  0  0  0  0  0  0  0  0  0  0
   21.7823   -6.8136   -0.0000 C   0  0  0  0  0  0  0  0  0  0  0  0
   27.1240   -9.5201   -0.0000 O   0  0  0  0  0  0  0  0  0  0  0  0
   24.5125   -9.5320   -0.0000 C   0  0  0  0  0  0  0  0  0  0  0  0
   28.4298   -7.2647   -0.0000 C   0  0  0  0  0  0  0  0  0  0  0  0
   21.7704   -9.2352   -0.0000 O   0  0  0  0  0  0  0  0  0  0  0  0
   20.8802   -8.0244   -0.0000 C   0  0  0  0  0  0  0  0  0  0  0  0
   28.4179   -8.7604   -0.0000 C   0  0  0  0  0  0  0  0  0  0  0  0
   29.7118   -9.4964   -0.0000 O   0  0  0  0  0  0  0  0  0  0  0  0
  1  2  2  0  0  0  0
  2  3  1  0  0  0  0
  2  4  1  0  0  0  0
  3  5  1  0  0  0  0
  4  6  2  0  0  0  0
  5  7  2  0  0  0  0
  5  8  1  0  0  0  0
  7  9  1  0  0  0  0
  8 10  2  0  0  0  0
  9 11  1  0  0  0  0
  9 12  2  0  0  0  0
 10 13  1  0  0  0  0
 11 14  1  0  0  0  0
 12 15  1  0  0  0  0
 13 16  1  0  0  0  0
 14 17  1  0  0  0  0
 17 18  2  0  0  0  0
 18 19  1  0  0  0  0
 18 20  1  0  0  0  0
 19 21  1  0  0  0  0
 21 22  1  0  0  0  0
 22 23  1  0  0  0  0
 22 24  1  0  0  0  0
 23 25  1  0  0  0  0
 24 26  2  0  0  0  0
 24 27  1  0  0  0  0
 25 28  1  0  0  0  0
 25 29  1  0  0  0  0
 25 30  1  0  0  0  0
 28 31  1  0  0  0  0
 28 32  1  0  0  0  0
 32 33  1  0  0  0  0
 33 34  1  0  0  0  0
 34 35  2  0  0  0  0
 34 36  1  0  0  0  0
 35 37  1  0  0  0  0
 37 38  1  0  0  0  0
 38 39  1  0  0  0  0
 39 40  2  0  0  0  0
 39 41  1  0  0  0  0
 40 42  1  0  0  0  0
 40 43  1  0  0  0  0
 41 44  2  0  0  0  0
 41 45  1  0  0  0  0
 42 46  1  0  0  0  0
 42 47  2  0  0  0  0
 43 48  2  0  0  0  0
 44 49  1  0  0  0  0
 45 50  2  0  0  0  0
 46 51  1  0  0  0  0
 51 52  2  0  0  0  0
  6  7  1  0  0  0  0
 10 12  1  0  0  0  0
 15 16  2  0  0  0  0
 44 47  1  0  0  0  0
 48 51  1  0  0  0  0
 49 50  1  0  0  0  0
M  END
>  <MolRegNo>
1122141

>  <m>
=

>  <Value>
310

>  <Unit>
nM

>  <Type>
Ki

>  <pValue>
6.51

>  <Ligand Efficiency>
0

>  <Binding Efficiency>
0

>  <Surface Efficiency>
0

>  <Assay Index>
581949

>  <Assay Category>


>  <Assay Organism>
Homo sapiens

>  <Target ID>
17045

>  <Target Name>
Cytochrome P450 3A4

>  <Target Organism>
Homo sapiens

>  <Target Description>
Target is a single protein chain

>  <Sequence Accession>
P08684

>  <Reference>
Curr Drug Metab 6 (1), 413-454 (2005)

>  <Pubmed ID>
16248836

>  <DOI>
10.2174/138920005774330639

$$$$
1122142
Actelion Java MolfileCreator 1.0

 53 58  0  0  0  0  0  0  0  0999 V2000
    0.0000   -0.0000   -0.0000 O   0  0  0  0  0  0  0  0  0  0  0  0
    1.2936   -0.7477   -0.0000 C   0  0  0  0  0  0  0  0  0  0  0  0
    2.5872    0.0119   -0.0000 O   0  0  0  0  0  0  0  0  0  0  0  0
    1.2817   -2.2430   -0.0000 C   0  0  0  0  0  0  0  0  0  0  0  0
    3.8808   -0.7358   -0.0000 C   0  0  0  0  0  0  0  0  0  0  0  0
    2.5753   -2.9788   -0.0000 C   0  0  0  0  0  0  0  0  0  0  0  0
    3.8689   -2.2311   -0.0000 C   0  0  0  0  0  0  0  0  0  0  0  0
    5.1744    0.0237   -0.0000 C   0  0  0  0  0  0  0  0  0  0  0  0
    5.1625   -2.9788   -0.0000 C   0  0  0  0  0  0  0  0  0  0  0  0
    6.4680   -0.7121   -0.0000 C   0  0  0  0  0  0  0  0  0  0  0  0
    5.1506   -4.4742   -0.0000 O   0  0  0  0  0  0  0  0  0  0  0  0
    6.4561   -2.2193   -0.0000 C   0  0  0  0  0  0  0  0  0  0  0  0
    7.8921   -0.2374   -0.0000 O   0  0  0  0  0  0  0  0  0  0  0  0
    6.4442   -5.2100   -0.0000 C   0  0  0  0  0  0  0  0  0  0  0  0
    7.8802   -2.6703   -0.0000 C   0  0  0  0  0  0  0  0  0  0  0  0
    8.7703   -1.4479   -0.0000 C   0  0  0  0  0  0  0  0  0  0  0  0
    7.7378   -4.4504   -0.0000 C   0  0  0  0  0  0  0  0  0  0  0  0
    9.0314   -5.1862   -0.0000 C   0  0  0  0  0  0  0  0  0  0  0  0
   10.3250   -4.4267   -0.0000 C   0  0  0  0  0  0  0  0  0  0  0  0
    9.0195   -6.6816   -0.0000 C   0  0  0  0  0  0  0  0  0  0  0  0
   11.6186   -5.1625   -0.0000 C   0  0  0  0  0  0  0  0  0  0  0  0
   12.9122   -4.4030   -0.0000 C   0  0  0  0  0  0  0  0  0  0  0  0
   14.2058   -5.1388   -0.0000 O   0  0  0  0  0  0  0  0  0  0  0  0
   12.9003   -2.8839   -0.0000 C   0  0  0  0  0  0  0  0  0  0  0  0
   15.4994   -4.3792   -0.0000 C   0  0  0  0  0  0  0  0  0  0  0  0
   12.8884   -1.3648   -0.0000 O   0  0  0  0  0  0  0  0  0  0  0  0
   14.1939   -2.1243   -0.0000 C   0  0  0  0  0  0  0  0  0  0  0  0
   11.5830   -2.1243   -0.0000 C   0  0  0  0  0  0  0  0  0  0  0  0
   16.7930   -5.1150   -0.0000 C   0  0  0  0  0  0  0  0  0  0  0  0
   14.4194   -3.2993   -0.0000 C   0  0  0  0  0  0  0  0  0  0  0  0
   15.8791   -2.9076   -0.0000 C   0  0  0  0  0  0  0  0  0  0  0  0
   16.7811   -6.6104   -0.0000 O   0  0  0  0  0  0  0  0  0  0  0  0
   18.0865   -4.3555   -0.0000 C   0  0  0  0  0  0  0  0  0  0  0  0
   19.3801   -5.0913   -0.0000 C   0  0  0  0  0  0  0  0  0  0  0  0
   20.6737   -4.3318   -0.0000 C   0  0  0  0  0  0  0  0  0  0  0  0
   21.9673   -5.0676   -0.0000 C   0  0  0  0  0  0  0  0  0  0  0  0
   20.6619   -2.8127   -0.0000 C   0  0  0  0  0  0  0  0  0  0  0  0
   23.2609   -4.3080   -0.0000 C   0  0  0  0  0  0  0  0  0  0  0  0
   24.5545   -5.0438   -0.0000 O   0  0  0  0  0  0  0  0  0  0  0  0
   24.5426   -6.5392   -0.0000 C   0  0  0  0  0  0  0  0  0  0  0  0
   25.8362   -7.2868   -0.0000 C   0  0  0  0  0  0  0  0  0  0  0  0
   23.2253   -7.2868   -0.0000 C   0  0  0  0  0  0  0  0  0  0  0  0
   25.8244   -8.7822   -0.0000 C   0  0  0  0  0  0  0  0  0  0  0  0
   27.1298   -6.5154   -0.0000 C   0  0  0  0  0  0  0  0  0  0  0  0
   23.2134   -8.7822   -0.0000 C   0  0  0  0  0  0  0  0  0  0  0  0
   21.7774   -6.8121   -0.0000 C   0  0  0  0  0  0  0  0  0  0  0  0
   27.1180   -9.5180   -0.0000 O   0  0  0  0  0  0  0  0  0  0  0  0
   24.5070   -9.5299   -0.0000 C   0  0  0  0  0  0  0  0  0  0  0  0
   28.4234   -7.2631   -0.0000 C   0  0  0  0  0  0  0  0  0  0  0  0
   21.7656   -9.2332   -0.0000 O   0  0  0  0  0  0  0  0  0  0  0  0
   20.8755   -8.0226   -0.0000 C   0  0  0  0  0  0  0  0  0  0  0  0
   28.4115   -8.7584   -0.0000 C   0  0  0  0  0  0  0  0  0  0  0  0
   29.7051   -9.4943   -0.0000 O   0  0  0  0  0  0  0  0  0  0  0  0
  1  2  2  0  0  0  0
  2  3  1  0  0  0  0
  2  4  1  0  0  0  0
  3  5  1  0  0  0  0
  4  6  2  0  0  0  0
  5  7  2  0  0  0  0
  5  8  1  0  0  0  0
  7  9  1  0  0  0  0
  8 10  2  0  0  0  0
  9 11  1  0  0  0  0
  9 12  2  0  0  0  0
 10 13  1  0  0  0  0
 11 14  1  0  0  0  0
 12 15  1  0  0  0  0
 13 16  1  0  0  0  0
 14 17  1  0  0  0  0
 17 18  2  0  0  0  0
 18 19  1  0  0  0  0
 18 20  1  0  0  0  0
 19 21  1  0  0  0  0
 21 22  1  0  0  0  0
 22 23  1  0  0  0  0
 22 24  1  0  0  0  0
 23 25  1  0  0  0  0
 24 26  1  0  0  0  0
 24 27  1  0  0  0  0
 24 28  1  0  0  0  0
 25 29  1  0  0  0  0
 25 30  1  0  0  0  0
 25 31  1  0  0  0  0
 29 32  1  0  0  0  0
 29 33  1  0  0  0  0
 33 34  1  0  0  0  0
 34 35  1  0  0  0  0
 35 36  2  0  0  0  0
 35 37  1  0  0  0  0
 36 38  1  0  0  0  0
 38 39  1  0  0  0  0
 39 40  1  0  0  0  0
 40 41  2  0  0  0  0
 40 42  1  0  0  0  0
 41 43  1  0  0  0  0
 41 44  1  0  0  0  0
 42 45  2  0  0  0  0
 42 46  1  0  0  0  0
 43 47  1  0  0  0  0
 43 48  2  0  0  0  0
 44 49  2  0  0  0  0
 45 50  1  0  0  0  0
 46 51  2  0  0  0  0
 47 52  1  0  0  0  0
 52 53  2  0  0  0  0
  6  7  1  0  0  0  0
 10 12  1  0  0  0  0
 15 16  2  0  0  0  0
 45 48  1  0  0  0  0
 49 52  1  0  0  0  0
 50 51  1  0  0  0  0
M  END
>  <MolRegNo>
1122142

>  <m>
=

>  <Value>
130

>  <Unit>
nM

>  <Type>
Ki

>  <pValue>
6.89

>  <Ligand Efficiency>
0

>  <Binding Efficiency>
0

>  <Surface Efficiency>
0

>  <Assay Index>
581949

>  <Assay Category>


>  <Assay Organism>
Homo sapiens

>  <Target ID>
17045

>  <Target Name>
Cytochrome P450 3A4

>  <Target Organism>
Homo sapiens

>  <Target Description>
Target is a single protein chain

>  <Sequence Accession>
P08684

>  <Reference>
Curr Drug Metab 6 (1), 413-454 (2005)

>  <Pubmed ID>
16248836

>  <DOI>
10.2174/138920005774330639

$$$$
1122137
Actelion Java MolfileCreator 1.0

 43 45  0  0  0  0  0  0  0  0999 V2000
    0.0000   -0.0000   -0.0000 S   0  0  0  0  0  0  0  0  0  0  0  0
   -1.3119    0.7564   -0.0000 O   0  0  0  0  0  0  0  0  0  0  0  0
    0.3782    1.4656   -0.0000 O   0  0  0  0  0  0  0  0  0  0  0  0
   -1.3119   -0.7446   -0.0000 N   0  0  0  0  0  0  0  0  0  0  0  0
    1.4892    0.0118   -0.0000 C   0  0  0  0  0  0  0  0  0  0  0  0
   -1.3237   -2.2338   -0.0000 C   0  0  0  0  0  0  0  0  0  0  0  0
   -2.6238    0.0118   -0.0000 C   0  0  0  0  0  0  0  0  0  0  0  0
    2.2220    1.3237   -0.0000 C   0  0  0  0  0  0  0  0  0  0  0  0
    2.2220   -1.2765   -0.0000 C   0  0  0  0  0  0  0  0  0  0  0  0
   -0.0355   -2.9666   -0.0000 C   0  0  0  0  0  0  0  0  0  0  0  0
   -4.1367    0.0236   -0.0000 C   0  0  0  0  0  0  0  0  0  0  0  0
    3.7112    1.3355   -0.0000 C   0  0  0  0  0  0  0  0  0  0  0  0
    3.7112   -1.2646   -0.0000 C   0  0  0  0  0  0  0  0  0  0  0  0
    1.2528   -2.2102   -0.0000 O   0  0  0  0  0  0  0  0  0  0  0  0
   -0.0473   -4.4558   -0.0000 C   0  0  0  0  0  0  0  0  0  0  0  0
   -4.8931    1.3355   -0.0000 C   0  0  0  0  0  0  0  0  0  0  0  0
   -5.2122   -1.0283   -0.0000 C   0  0  0  0  0  0  0  0  0  0  0  0
    4.4440    2.6475   -0.0000 N   0  0  0  0  0  0  0  0  0  0  0  0
    4.4440    0.0473   -0.0000 C   0  0  0  0  0  0  0  0  0  0  0  0
   -1.3592   -5.2004   -0.0000 N   0  0  0  0  0  0  0  0  0  0  0  0
    1.2410   -5.2004   -0.0000 C   0  0  0  0  0  0  0  0  0  0  0  0
   -2.6711   -4.4440   -0.0000 C   0  0  0  0  0  0  0  0  0  0  0  0
    1.2292   -6.6896   -0.0000 C   0  0  0  0  0  0  0  0  0  0  0  0
   -2.6829   -2.9311   -0.0000 O   0  0  0  0  0  0  0  0  0  0  0  0
   -3.9830   -5.1885   -0.0000 C   0  0  0  0  0  0  0  0  0  0  0  0
   -0.0827   -7.4223   -0.0000 C   0  0  0  0  0  0  0  0  0  0  0  0
    2.5175   -7.4223   -0.0000 C   0  0  0  0  0  0  0  0  0  0  0  0
   -5.2949   -4.4321   -0.0000 N   0  0  0  0  0  0  0  0  0  0  0  0
   -0.0946   -8.9115   -0.0000 C   0  0  0  0  0  0  0  0  0  0  0  0
    2.5056   -8.9115   -0.0000 C   0  0  0  0  0  0  0  0  0  0  0  0
   -6.6068   -5.1767   -0.0000 C   0  0  0  0  0  0  0  0  0  0  0  0
    1.1937   -9.6443   -0.0000 C   0  0  0  0  0  0  0  0  0  0  0  0
   -6.6187   -6.6659   -0.0000 O   0  0  0  0  0  0  0  0  0  0  0  0
   -7.9187   -4.4203   -0.0000 C   0  0  0  0  0  0  0  0  0  0  0  0
   -9.2307   -5.1649   -0.0000 N   0  0  0  0  0  0  0  0  0  0  0  0
  -10.5426   -4.4085   -0.0000 C   0  0  0  0  0  0  0  0  0  0  0  0
  -11.8545   -5.1531   -0.0000 C   0  0  0  0  0  0  0  0  0  0  0  0
  -11.8663   -6.6423   -0.0000 C   0  0  0  0  0  0  0  0  0  0  0  0
  -13.1664   -4.3967   -0.0000 C   0  0  0  0  0  0  0  0  0  0  0  0
  -13.1782   -7.3751   -0.0000 C   0  0  0  0  0  0  0  0  0  0  0  0
  -14.4783   -5.1413   -0.0000 C   0  0  0  0  0  0  0  0  0  0  0  0
  -13.1900   -8.8643   -0.0000 F   0  0  0  0  0  0  0  0  0  0  0  0
  -14.4901   -6.6187   -0.0000 C   0  0  0  0  0  0  0  0  0  0  0  0
  1  2  2  0  0  0  0
  1  3  2  0  0  0  0
  1  4  1  0  0  0  0
  1  5  1  0  0  0  0
  4  6  1  0  0  0  0
  4  7  1  0  0  0  0
  5  8  2  0  0  0  0
  5  9  1  0  0  0  0
  6 10  1  0  0  0  0
  7 11  1  0  0  0  0
  8 12  1  0  0  0  0
  9 13  2  0  0  0  0
 10 14  2  0  0  0  0
 10 15  1  0  0  0  0
 11 16  1  0  0  0  0
 11 17  1  0  0  0  0
 12 18  1  0  0  0  0
 12 19  2  0  0  0  0
 15 20  1  6  0  0  0
 15 21  1  0  0  0  0
 20 22  1  0  0  0  0
 21 23  1  0  0  0  0
 22 24  2  0  0  0  0
 22 25  1  0  0  0  0
 23 26  2  0  0  0  0
 23 27  1  0  0  0  0
 25 28  1  0  0  0  0
 26 29  1  0  0  0  0
 27 30  2  0  0  0  0
 28 31  1  0  0  0  0
 29 32  2  0  0  0  0
 31 33  2  0  0  0  0
 31 34  1  0  0  0  0
 34 35  1  0  0  0  0
 35 36  1  0  0  0  0
 36 37  1  0  0  0  0
 37 38  2  0  0  0  0
 37 39  1  0  0  0  0
 38 40  1  0  0  0  0
 39 41  2  0  0  0  0
 40 42  1  0  0  0  0
 40 43  2  0  0  0  0
 13 19  1  0  0  0  0
 30 32  1  0  0  0  0
 41 43  1  0  0  0  0
M  END
>  <MolRegNo>
1122137

>  <m>
=

>  <Value>
240

>  <Unit>
nM

>  <Type>
Ki

>  <pValue>
6.62

>  <Ligand Efficiency>
0

>  <Binding Efficiency>
0

>  <Surface Efficiency>
0

>  <Assay Index>
581954

>  <Assay Category>


>  <Assay Organism>
Homo sapiens

>  <Target ID>
17045

>  <Target Name>
Cytochrome P450 3A4

>  <Target Organism>
Homo sapiens

>  <Target Description>
Target is a single protein chain

>  <Sequence Accession>
P08684

>  <Reference>
Curr Drug Metab 6 (1), 413-454 (2005)

>  <Pubmed ID>
16248836

>  <DOI>
10.2174/138920005774330639

$$$$
1355728
Actelion Java MolfileCreator 1.0

 48 53  0  0  1  0  0  0  0  0999 V2000
    0.0000   -0.0000   -0.0000 O   0  0  0  0  0  0  0  0  0  0  0  0
   -1.3014    0.7641   -0.0000 C   0  0  0  0  0  0  0  0  0  0  0  0
   -2.6267    0.0597   -0.0000 N   0  0  0  0  0  0  0  0  0  0  0  0
   -1.2895    2.2805   -0.0000 C   0  0  0  0  0  0  0  0  0  0  0  0
   -2.6506   -1.4328   -0.0000 C   0  0  0  0  0  0  0  0  0  0  0  0
    0.0000    3.0446   -0.0000 N   0  0  0  0  0  0  0  0  0  0  0  0
   -2.6028    3.0446   -0.0000 C   0  0  0  0  0  0  0  0  0  0  0  0
   -2.6864   -2.9252   -0.0000 C   0  0  0  0  0  0  0  0  0  0  0  0
   -3.9759   -2.1611   -0.0000 C   0  0  0  0  0  0  0  0  0  0  0  0
   -1.3611   -2.1969   -0.0000 C   0  0  0  0  0  0  0  0  0  0  0  0
   -0.0119    4.5609   -0.0000 C   0  0  0  0  0  0  0  0  0  0  0  0
    1.3014    2.3043   -0.0000 C   0  0  0  0  0  0  0  0  0  0  0  0
   -2.6148    4.5609   -0.0000 N   0  0  0  0  0  0  0  0  0  0  0  0
   -1.3253    5.3251   -0.0000 C   0  0  0  0  0  0  0  0  0  0  0  0
    2.5909    3.0685   -0.0000 C   0  0  0  0  0  0  0  0  0  0  0  0
   -3.9281    5.3251   -0.0000 C   0  0  0  0  0  0  0  0  0  0  0  0
    2.5551    4.5848   -0.0000 O   0  0  0  0  0  0  0  0  0  0  0  0
    3.8804    2.3282   -0.0000 C   0  0  0  0  0  0  0  0  0  0  0  0
   -5.2415    4.5609   -0.0000 C   0  0  0  0  0  0  0  0  0  0  0  0
    5.1698    3.0924   -0.0000 C   0  0  0  0  0  0  0  0  0  0  0  0
   -5.2534    3.0565   -0.0000 C   0  0  0  0  0  0  0  0  0  0  0  0
   -6.5548    5.3251   -0.0000 C   0  0  0  0  0  0  0  0  0  0  0  0
    6.4593    2.3640   -0.0000 C   0  0  0  0  0  0  0  0  0  0  0  0
    5.1340    4.6087   -0.0000 C   0  0  0  0  0  0  0  0  0  0  0  0
   -6.5668    2.3163   -0.0000 N   0  0  0  0  0  0  0  0  0  0  0  0
   -7.8682    4.5848   -0.0000 C   0  0  0  0  0  0  0  0  0  0  0  0
    6.4474    0.8716   -0.0000 O   0  0  0  0  0  0  0  0  0  0  0  0
    7.7488    3.1282   -0.0000 N   0  0  0  0  0  0  0  0  0  0  0  0
    5.8743    5.9340   -0.0000 C   0  0  0  0  0  0  0  0  0  0  0  0
   -7.8801    3.0804   -0.0000 C   0  0  0  0  0  0  0  0  0  0  0  0
   -9.3248    5.0624   -0.0000 C   0  0  0  0  0  0  0  0  0  0  0  0
    9.0383    2.3879   -0.0000 C   0  0  0  0  0  0  0  0  0  0  0  0
    5.0982    7.2354   -0.0000 C   0  0  0  0  0  0  0  0  0  0  0  0
    7.3548    5.9459   -0.0000 C   0  0  0  0  0  0  0  0  0  0  0  0
   -9.3368    2.6267   -0.0000 O   0  0  0  0  0  0  0  0  0  0  0  0
  -10.2203    3.8565   -0.0000 C   0  0  0  0  0  0  0  0  0  0  0  0
    9.1816    0.9313   -0.0000 C   0  0  0  0  0  0  0  0  0  0  0  0
   10.3755    3.0207   -0.0000 C   0  0  0  0  0  0  0  0  0  0  0  0
    5.8146    8.5607   -0.0000 C   0  0  0  0  0  0  0  0  0  0  0  0
    8.0712    7.2712   -0.0000 C   0  0  0  0  0  0  0  0  0  0  0  0
   10.6143    0.6328   -0.0000 C   0  0  0  0  0  0  0  0  0  0  0  0
    8.1667   -0.1552   -0.0000 C   0  0  0  0  0  0  0  0  0  0  0  0
   10.7456    4.4893   -0.0000 O   0  0  0  0  0  0  0  0  0  0  0  0
   11.3665    1.9342   -0.0000 C   0  0  0  0  0  0  0  0  0  0  0  0
    7.3070    8.5726   -0.0000 C   0  0  0  0  0  0  0  0  0  0  0  0
   11.0680   -0.7403   -0.0000 C   0  0  0  0  0  0  0  0  0  0  0  0
    8.6204   -1.5283   -0.0000 C   0  0  0  0  0  0  0  0  0  0  0  0
   10.0651   -1.8268   -0.0000 C   0  0  0  0  0  0  0  0  0  0  0  0
  1  2  2  0  0  0  0
  2  3  1  0  0  0  0
  4  2  1  6  0  0  0
  3  5  1  0  0  0  0
  4  6  1  0  0  0  0
  4  7  1  0  0  0  0
  5  8  1  0  0  0  0
  5  9  1  0  0  0  0
  5 10  1  0  0  0  0
  6 11  1  0  0  0  0
  6 12  1  0  0  0  0
  7 13  1  0  0  0  0
 11 14  1  0  0  0  0
 12 15  1  0  0  0  0
 13 16  1  0  0  0  0
 15 17  1  1  0  0  0
 15 18  1  0  0  0  0
 16 19  1  0  0  0  0
 20 18  1  1  0  0  0
 19 21  2  0  0  0  0
 19 22  1  0  0  0  0
 20 23  1  0  0  0  0
 20 24  1  0  0  0  0
 21 25  1  0  0  0  0
 22 26  2  0  0  0  0
 23 27  2  0  0  0  0
 23 28  1  0  0  0  0
 24 29  1  0  0  0  0
 25 30  2  0  0  0  0
 26 31  1  0  0  0  0
 32 28  1  6  0  0  0
 29 33  2  0  0  0  0
 29 34  1  0  0  0  0
 30 35  1  0  0  0  0
 31 36  2  0  0  0  0
 32 37  1  0  0  0  0
 32 38  1  0  0  0  0
 33 39  1  0  0  0  0
 34 40  2  0  0  0  0
 37 41  2  0  0  0  0
 37 42  1  0  0  0  0
 38 43  1  6  0  0  0
 38 44  1  0  0  0  0
 39 45  2  0  0  0  0
 41 46  1  0  0  0  0
 42 47  2  0  0  0  0
 46 48  2  0  0  0  0
 13 14  1  0  0  0  0
 26 30  1  0  0  0  0
 35 36  1  0  0  0  0
 40 45  1  0  0  0  0
 41 44  1  0  0  0  0
 47 48  1  0  0  0  0
M  END
>  <MolRegNo>
1355728

>  <m>
=

>  <Value>
7500

>  <Unit>
nM

>  <Type>
Ki

>  <pValue>
5.12

>  <Ligand Efficiency>
0

>  <Binding Efficiency>
0

>  <Surface Efficiency>
0

>  <Assay Index>
581956

>  <Assay Category>


>  <Assay Organism>
Homo sapiens

>  <Target ID>
17045

>  <Target Name>
Cytochrome P450 3A4

>  <Target Organism>
Homo sapiens

>  <Target Description>
Target is a single protein chain

>  <Sequence Accession>
P08684

>  <Reference>
Curr Drug Metab 6 (1), 413-454 (2005)

>  <Pubmed ID>
16248836

>  <DOI>
10.2174/138920005774330639

$$$$
31241
Actelion Java MolfileCreator 1.0

 22 25  0  0  1  0  0  0  0  0999 V2000
    0.0000   -0.0000   -0.0000 O   0  0  0  0  0  0  0  0  0  0  0  0
    1.2834    0.7605   -0.0000 C   0  0  0  0  0  0  0  0  0  0  0  0
    2.5668    0.0238   -0.0000 C   0  0  0  0  0  0  0  0  0  0  0  0
    1.2715    2.2816   -0.0000 C   0  0  0  0  0  0  0  0  0  0  0  0
    3.8501    0.7843   -0.0000 C   0  0  0  0  0  0  0  0  0  0  0  0
    2.5549    3.0421   -0.0000 C   0  0  0  0  0  0  0  0  0  0  0  0
    3.8382    2.3053   -0.0000 C   0  0  0  0  0  0  0  0  0  0  0  0
    5.1335    0.0475   -0.0000 C   0  0  0  0  0  0  0  0  0  0  0  0
    5.1216    3.0777   -0.0000 C   0  0  0  0  0  0  0  0  0  0  0  0
    6.4288    0.8081   -0.0000 C   0  0  0  0  0  0  0  0  0  0  0  0
    6.4050    2.3291   -0.0000 C   0  0  0  0  0  0  0  0  0  0  0  0
    5.1097    4.5988   -0.0000 C   0  0  0  0  0  0  0  0  0  0  0  0
    7.7121    3.0896   -0.0000 C   0  0  0  0  0  0  0  0  0  0  0  0
    6.4169    5.3474   -0.0000 C   0  0  0  0  0  0  0  0  0  0  0  0
    7.7121    4.5988   -0.0000 C   0  0  0  0  0  0  0  0  0  0  0  0
    9.1262    2.6262   -0.0000 C   0  0  0  0  0  0  0  0  0  0  0  0
    9.1262    5.0622   -0.0000 C   0  0  0  0  0  0  0  0  0  0  0  0
    7.6884    6.1079   -0.0000 C   0  0  0  0  0  0  0  0  0  0  0  0
   10.0056    3.8501   -0.0000 C   0  0  0  0  0  0  0  0  0  0  0  0
    9.1025    6.5714   -0.0000 O   0  0  0  0  0  0  0  0  0  0  0  0
   10.3977    5.8346   -0.0000 C   0  0  0  0  0  0  0  0  0  0  0  0
   11.6811    6.6189   -0.0000 C   0  0  0  0  0  0  0  0  0  0  0  0
  1  2  1  0  0  0  0
  2  3  2  0  0  0  0
  2  4  1  0  0  0  0
  3  5  1  0  0  0  0
  4  6  2  0  0  0  0
  5  7  2  0  0  0  0
  5  8  1  0  0  0  0
  7  9  1  0  0  0  0
  8 10  1  0  0  0  0
  9 11  1  0  0  0  0
  9 12  1  1  0  0  0
 11 13  1  0  0  0  0
 12 14  1  0  0  0  0
 13 15  1  0  0  0  0
 13 16  1  1  0  0  0
 15 17  1  0  0  0  0
 15 18  1  1  0  0  0
 16 19  1  0  0  0  0
 17 20  1  1  0  0  0
 17 21  1  0  0  0  0
 21 22  3  0  0  0  0
  6  7  1  0  0  0  0
 11 10  1  6  0  0  0
 14 15  1  0  0  0  0
 17 19  1  0  0  0  0
M  END
>  <MolRegNo>
31241

>  <m>
=

>  <Value>
18000

>  <Unit>
nM

>  <Type>
Ki

>  <pValue>
4.75

>  <Ligand Efficiency>
0

>  <Binding Efficiency>
0

>  <Surface Efficiency>
0

>  <Assay Index>
581957

>  <Assay Category>


>  <Assay Organism>
Homo sapiens

>  <Target ID>
17045

>  <Target Name>
Cytochrome P450 3A4

>  <Target Organism>
Homo sapiens

>  <Target Description>
Target is a single protein chain

>  <Sequence Accession>
P08684

>  <Reference>
Curr Drug Metab 6 (1), 413-454 (2005)

>  <Pubmed ID>
16248836

>  <DOI>
10.2174/138920005774330639

$$$$
1122149
Actelion Java MolfileCreator 1.0

 38 42  0  0  0  0  0  0  0  0999 V2000
    0.0000   -0.0000   -0.0000 S   0  0  0  0  0  0  0  0  0  0  0  0
   -1.4478   -0.4510   -0.0000 C   0  0  0  0  0  0  0  0  0  0  0  0
    0.8782   -1.2105   -0.0000 C   0  0  0  0  0  0  0  0  0  0  0  0
   -1.4597   -1.9463   -0.0000 C   0  0  0  0  0  0  0  0  0  0  0  0
   -2.7651    0.3086   -0.0000 C   0  0  0  0  0  0  0  0  0  0  0  0
   -0.0237   -2.4210   -0.0000 N   0  0  0  0  0  0  0  0  0  0  0  0
    2.3735   -1.1986   -0.0000 C   0  0  0  0  0  0  0  0  0  0  0  0
   -2.7770   -2.6821   -0.0000 C   0  0  0  0  0  0  0  0  0  0  0  0
   -4.0825   -0.4272   -0.0000 C   0  0  0  0  0  0  0  0  0  0  0  0
    0.4272   -3.8451   -0.0000 C   0  0  0  0  0  0  0  0  0  0  0  0
    3.1093    0.1187   -0.0000 C   0  0  0  0  0  0  0  0  0  0  0  0
    3.1093   -2.4922   -0.0000 C   0  0  0  0  0  0  0  0  0  0  0  0
   -4.0943   -1.9226   -0.0000 C   0  0  0  0  0  0  0  0  0  0  0  0
   -0.5934   -4.9488   -0.0000 C   0  0  0  0  0  0  0  0  0  0  0  0
    1.8869   -4.1418   -0.0000 C   0  0  0  0  0  0  0  0  0  0  0  0
    2.3498    1.4360   -0.0000 O   0  0  0  0  0  0  0  0  0  0  0  0
    4.6046    0.1305   -0.0000 C   0  0  0  0  0  0  0  0  0  0  0  0
    4.6046   -2.4803   -0.0000 C   0  0  0  0  0  0  0  0  0  0  0  0
    3.0856    2.7533   -0.0000 C   0  0  0  0  0  0  0  0  0  0  0  0
    5.3404   -1.1630   -0.0000 C   0  0  0  0  0  0  0  0  0  0  0  0
    5.3404   -3.7739   -0.0000 O   0  0  0  0  0  0  0  0  0  0  0  0
    4.5809    2.7651   -0.0000 C   0  0  0  0  0  0  0  0  0  0  0  0
    6.8357   -3.7620   -0.0000 C   0  0  0  0  0  0  0  0  0  0  0  0
    5.3167    1.4716   -0.0000 C   0  0  0  0  0  0  0  0  0  0  0  0
    6.8120    1.4834   -0.0000 N   0  0  0  0  0  0  0  0  0  0  0  0
    7.5478    0.1899   -0.0000 C   0  0  0  0  0  0  0  0  0  0  0  0
    7.5478    2.8008   -0.0000 C   0  0  0  0  0  0  0  0  0  0  0  0
    9.0431    0.2017   -0.0000 C   0  0  0  0  0  0  0  0  0  0  0  0
    9.7789   -1.0918   -0.0000 O   0  0  0  0  0  0  0  0  0  0  0  0
   11.2742   -1.0800   -0.0000 C   0  0  0  0  0  0  0  0  0  0  0  0
   12.0100    0.2374   -0.0000 C   0  0  0  0  0  0  0  0  0  0  0  0
   12.0100   -2.3735   -0.0000 C   0  0  0  0  0  0  0  0  0  0  0  0
   13.5053    0.2492   -0.0000 C   0  0  0  0  0  0  0  0  0  0  0  0
   13.5053   -2.3617   -0.0000 C   0  0  0  0  0  0  0  0  0  0  0  0
   14.5022    1.3766   -0.0000 O   0  0  0  0  0  0  0  0  0  0  0  0
   14.2411   -1.0443   -0.0000 C   0  0  0  0  0  0  0  0  0  0  0  0
   15.8670    0.7714   -0.0000 C   0  0  0  0  0  0  0  0  0  0  0  0
   15.7008   -0.7239   -0.0000 O   0  0  0  0  0  0  0  0  0  0  0  0
  1  2  1  0  0  0  0
  1  3  1  0  0  0  0
  2  4  2  0  0  0  0
  2  5  1  0  0  0  0
  3  6  1  0  0  0  0
  3  7  1  0  0  0  0
  4  8  1  0  0  0  0
  5  9  2  0  0  0  0
  6 10  1  0  0  0  0
  7 11  2  0  0  0  0
  7 12  1  0  0  0  0
  8 13  2  0  0  0  0
 10 14  2  0  0  0  0
 10 15  1  0  0  0  0
 11 16  1  0  0  0  0
 11 17  1  0  0  0  0
 12 18  2  0  0  0  0
 16 19  1  0  0  0  0
 17 20  2  0  0  0  0
 18 21  1  0  0  0  0
 19 22  1  0  0  0  0
 21 23  1  0  0  0  0
 22 24  1  0  0  0  0
 24 25  1  0  0  0  0
 25 26  1  0  0  0  0
 25 27  1  0  0  0  0
 26 28  1  0  0  0  0
 28 29  1  0  0  0  0
 29 30  1  0  0  0  0
 30 31  2  0  0  0  0
 30 32  1  0  0  0  0
 31 33  1  0  0  0  0
 32 34  2  0  0  0  0
 33 35  1  0  0  0  0
 33 36  2  0  0  0  0
 35 37  1  0  0  0  0
 36 38  1  0  0  0  0
  4  6  1  0  0  0  0
  9 13  1  0  0  0  0
 18 20  1  0  0  0  0
 34 36  1  0  0  0  0
 37 38  1  0  0  0  0
M  END
>  <MolRegNo>
1122149

>  <m>
=

>  <Value>
250

>  <Unit>
nM

>  <Type>
Ki

>  <pValue>
6.6

>  <Ligand Efficiency>
0

>  <Binding Efficiency>
0

>  <Surface Efficiency>
0

>  <Assay Index>
581960

>  <Assay Category>


>  <Assay Organism>
Homo sapiens

>  <Target ID>
17045

>  <Target Name>
Cytochrome P450 3A4

>  <Target Organism>
Homo sapiens

>  <Target Description>
Target is a single protein chain

>  <Sequence Accession>
P08684

>  <Reference>
Curr Drug Metab 6 (1), 413-454 (2005)

>  <Pubmed ID>
16248836

>  <DOI>
10.2174/138920005774330639

$$$$
1122127
Actelion Java MolfileCreator 1.0

 21 21  0  0  0  0  0  0  0  0999 V2000
    0.0000   -0.0000   -0.0000 O   0  0  0  0  0  0  0  0  0  0  0  0
    1.2971   -0.7378   -0.0000 C   0  0  0  0  0  0  0  0  0  0  0  0
   -1.3209   -0.7378   -0.0000 C   0  0  0  0  0  0  0  0  0  0  0  0
    1.2852   -2.2371   -0.0000 C   0  0  0  0  0  0  0  0  0  0  0  0
    2.5941    0.0238   -0.0000 C   0  0  0  0  0  0  0  0  0  0  0  0
   -0.0357   -2.9749   -0.0000 O   0  0  0  0  0  0  0  0  0  0  0  0
    2.5822   -2.9749   -0.0000 C   0  0  0  0  0  0  0  0  0  0  0  0
    3.8912   -0.7140   -0.0000 C   0  0  0  0  0  0  0  0  0  0  0  0
   -0.0476   -4.4743   -0.0000 C   0  0  0  0  0  0  0  0  0  0  0  0
    3.8793   -2.2133   -0.0000 C   0  0  0  0  0  0  0  0  0  0  0  0
    5.1882    0.0476   -0.0000 C   0  0  0  0  0  0  0  0  0  0  0  0
    5.1763    1.5708   -0.0000 C   0  0  0  0  0  0  0  0  0  0  0  0
    5.5690   -1.4042   -0.0000 C   0  0  0  0  0  0  0  0  0  0  0  0
    6.4853   -0.6902   -0.0000 C   0  0  0  0  0  0  0  0  0  0  0  0
    5.1644    3.0939   -0.0000 N   0  0  0  0  0  0  0  0  0  0  0  0
    7.0208   -1.7849   -0.0000 C   0  0  0  0  0  0  0  0  0  0  0  0
    4.8669   -2.6774   -0.0000 C   0  0  0  0  0  0  0  0  0  0  0  0
    7.7824    0.0714   -0.0000 C   0  0  0  0  0  0  0  0  0  0  0  0
    9.0794   -0.6664   -0.0000 C   0  0  0  0  0  0  0  0  0  0  0  0
   10.3765    0.0952   -0.0000 N   0  0  0  0  0  0  0  0  0  0  0  0
   11.6735   -0.6426   -0.0000 C   0  0  0  0  0  0  0  0  0  0  0  0
  1  2  1  0  0  0  0
  1  3  1  0  0  0  0
  2  4  2  0  0  0  0
  2  5  1  0  0  0  0
  4  6  1  0  0  0  0
  4  7  1  0  0  0  0
  5  8  2  0  0  0  0
  6  9  1  0  0  0  0
  7 10  2  0  0  0  0
  8 11  1  0  0  0  0
 11 12  1  0  0  0  0
 11 13  1  0  0  0  0
 11 14  1  0  0  0  0
 12 15  3  0  0  0  0
 13 16  1  0  0  0  0
 13 17  1  0  0  0  0
 14 18  1  0  0  0  0
 18 19  1  0  0  0  0
 19 20  1  0  0  0  0
 20 21  1  0  0  0  0
  8 10  1  0  0  0  0
M  END
>  <MolRegNo>
1122127

>  <m>
=

>  <Value>
7930

>  <Unit>
nM

>  <Type>
Ki

>  <pValue>
5.1

>  <Ligand Efficiency>
0

>  <Binding Efficiency>
0

>  <Surface Efficiency>
0

>  <Assay Index>
581961

>  <Assay Category>


>  <Assay Organism>
Homo sapiens

>  <Target ID>
17045

>  <Target Name>
Cytochrome P450 3A4

>  <Target Organism>
Homo sapiens

>  <Target Description>
Target is a single protein chain

>  <Sequence Accession>
P08684

>  <Reference>
Curr Drug Metab 6 (1), 413-454 (2005)

>  <Pubmed ID>
16248836

>  <DOI>
10.2174/138920005774330639

$$$$
29890
Actelion Java MolfileCreator 1.0

 19 20  0  0  0  0  0  0  0  0999 V2000
    0.0000   -0.0000   -0.0000 Cl  0  0  0  0  0  0  0  0  0  0  0  0
   -0.0119   -1.5055   -0.0000 C   0  0  0  0  0  0  0  0  0  0  0  0
    1.2785   -2.2344   -0.0000 C   0  0  0  0  0  0  0  0  0  0  0  0
   -1.3263   -2.2344   -0.0000 C   0  0  0  0  0  0  0  0  0  0  0  0
    2.5690   -1.4697   -0.0000 N   0  0  0  0  0  0  0  0  0  0  0  0
    1.2666   -3.7400   -0.0000 C   0  0  0  0  0  0  0  0  0  0  0  0
   -1.3383   -3.7400   -0.0000 C   0  0  0  0  0  0  0  0  0  0  0  0
    3.8595   -2.2105   -0.0000 C   0  0  0  0  0  0  0  0  0  0  0  0
    2.5570   -4.4927   -0.0000 Cl  0  0  0  0  0  0  0  0  0  0  0  0
   -0.0478   -4.4927   -0.0000 C   0  0  0  0  0  0  0  0  0  0  0  0
    5.1380   -1.4219   -0.0000 C   0  0  0  0  0  0  0  0  0  0  0  0
    3.8475   -3.7041   -0.0000 C   0  0  0  0  0  0  0  0  0  0  0  0
    6.4285   -2.1508   -0.0000 C   0  0  0  0  0  0  0  0  0  0  0  0
    5.1141    0.0956   -0.0000 C   0  0  0  0  0  0  0  0  0  0  0  0
    5.1380   -4.4330   -0.0000 C   0  0  0  0  0  0  0  0  0  0  0  0
    6.4285   -3.6563   -0.0000 C   0  0  0  0  0  0  0  0  0  0  0  0
    6.4046    0.8723   -0.0000 C   0  0  0  0  0  0  0  0  0  0  0  0
    6.3687    2.4017   -0.0000 O   0  0  0  0  0  0  0  0  0  0  0  0
    7.6950    0.1434   -0.0000 O   0  0  0  0  0  0  0  0  0  0  0  0
  1  2  1  0  0  0  0
  2  3  2  0  0  0  0
  2  4  1  0  0  0  0
  3  5  1  0  0  0  0
  3  6  1  0  0  0  0
  4  7  2  0  0  0  0
  5  8  1  0  0  0  0
  6  9  1  0  0  0  0
  6 10  2  0  0  0  0
  8 11  2  0  0  0  0
  8 12  1  0  0  0  0
 11 13  1  0  0  0  0
 11 14  1  0  0  0  0
 12 15  2  0  0  0  0
 13 16  2  0  0  0  0
 14 17  1  0  0  0  0
 17 18  2  0  0  0  0
 17 19  1  0  0  0  0
  7 10  1  0  0  0  0
 15 16  1  0  0  0  0
M  END
>  <MolRegNo>
29890

>  <m>
=

>  <Value>
1640000

>  <Unit>
nM

>  <Type>
Ki

>  <pValue>
0

>  <Ligand Efficiency>
0

>  <Binding Efficiency>
0

>  <Surface Efficiency>
0

>  <Assay Index>
581966

>  <Assay Category>


>  <Assay Organism>
Homo sapiens

>  <Target ID>
17045

>  <Target Name>
Cytochrome P450 3A4

>  <Target Organism>
Homo sapiens

>  <Target Description>
Target is a single protein chain

>  <Sequence Accession>
P08684

>  <Reference>
Curr Drug Metab 6 (1), 413-454 (2005)

>  <Pubmed ID>
16248836

>  <DOI>
10.2174/138920005774330639

$$$$
255870
Actelion Java MolfileCreator 1.0

 32 33  0  0  0  0  0  0  0  0999 V2000
    0.0000   -0.0000   -0.0000 O   0  0  0  0  0  0  0  0  0  0  0  0
   -1.3248    0.7638   -0.0000 C   0  0  0  0  0  0  0  0  0  0  0  0
   -0.0119   -1.4919   -0.0000 C   0  0  0  0  0  0  0  0  0  0  0  0
   -2.6376    0.0239   -0.0000 C   0  0  0  0  0  0  0  0  0  0  0  0
   -1.3367    2.2915   -0.0000 C   0  0  0  0  0  0  0  0  0  0  0  0
   -2.6495   -1.4680   -0.0000 O   0  0  0  0  0  0  0  0  0  0  0  0
   -3.9504    0.7877   -0.0000 C   0  0  0  0  0  0  0  0  0  0  0  0
   -2.6495    3.0553   -0.0000 C   0  0  0  0  0  0  0  0  0  0  0  0
   -3.9624   -2.2079   -0.0000 C   0  0  0  0  0  0  0  0  0  0  0  0
   -3.9624    2.3034   -0.0000 C   0  0  0  0  0  0  0  0  0  0  0  0
   -2.6615    4.5710   -0.0000 C   0  0  0  0  0  0  0  0  0  0  0  0
   -1.1696    4.5830   -0.0000 C   0  0  0  0  0  0  0  0  0  0  0  0
   -4.1772    4.5472   -0.0000 C   0  0  0  0  0  0  0  0  0  0  0  0
   -2.6853    6.0868   -0.0000 C   0  0  0  0  0  0  0  0  0  0  0  0
    0.2984    4.6188   -0.0000 N   0  0  0  0  0  0  0  0  0  0  0  0
   -4.9649    5.8600   -0.0000 C   0  0  0  0  0  0  0  0  0  0  0  0
   -4.9291    3.2582   -0.0000 C   0  0  0  0  0  0  0  0  0  0  0  0
   -1.4083    6.8625   -0.0000 C   0  0  0  0  0  0  0  0  0  0  0  0
   -1.4322    8.3783   -0.0000 C   0  0  0  0  0  0  0  0  0  0  0  0
   -0.1552    9.1540   -0.0000 N   0  0  0  0  0  0  0  0  0  0  0  0
    1.1457    8.4260   -0.0000 C   0  0  0  0  0  0  0  0  0  0  0  0
    2.4347    9.2018   -0.0000 C   0  0  0  0  0  0  0  0  0  0  0  0
    3.7237    8.4857   -0.0000 C   0  0  0  0  0  0  0  0  0  0  0  0
    4.9888    9.2495   -0.0000 C   0  0  0  0  0  0  0  0  0  0  0  0
    3.7237    6.9938   -0.0000 C   0  0  0  0  0  0  0  0  0  0  0  0
    6.2897    8.5215   -0.0000 C   0  0  0  0  0  0  0  0  0  0  0  0
    5.0246    6.2658   -0.0000 C   0  0  0  0  0  0  0  0  0  0  0  0
    7.5786    9.3092   -0.0000 O   0  0  0  0  0  0  0  0  0  0  0  0
    6.3016    7.0296   -0.0000 C   0  0  0  0  0  0  0  0  0  0  0  0
    8.8676    8.5811   -0.0000 C   0  0  0  0  0  0  0  0  0  0  0  0
    7.5667    6.3016   -0.0000 O   0  0  0  0  0  0  0  0  0  0  0  0
    7.5906    4.8097   -0.0000 C   0  0  0  0  0  0  0  0  0  0  0  0
  1  2  1  0  0  0  0
  1  3  1  0  0  0  0
  2  4  2  0  0  0  0
  2  5  1  0  0  0  0
  4  6  1  0  0  0  0
  4  7  1  0  0  0  0
  5  8  2  0  0  0  0
  6  9  1  0  0  0  0
  7 10  2  0  0  0  0
  8 11  1  0  0  0  0
 11 12  1  0  0  0  0
 11 13  1  0  0  0  0
 11 14  1  0  0  0  0
 12 15  3  0  0  0  0
 13 16  1  0  0  0  0
 13 17  1  0  0  0  0
 14 18  1  0  0  0  0
 18 19  1  0  0  0  0
 19 20  1  0  0  0  0
 20 21  1  0  0  0  0
 21 22  1  0  0  0  0
 22 23  1  0  0  0  0
 23 24  2  0  0  0  0
 23 25  1  0  0  0  0
 24 26  1  0  0  0  0
 25 27  2  0  0  0  0
 26 28  1  0  0  0  0
 26 29  2  0  0  0  0
 28 30  1  0  0  0  0
 29 31  1  0  0  0  0
 31 32  1  0  0  0  0
  8 10  1  0  0  0  0
 27 29  1  0  0  0  0
M  END
>  <MolRegNo>
255870

>  <m>
=

>  <Value>
2110

>  <Unit>
nM

>  <Type>
Ki

>  <pValue>
5.68

>  <Ligand Efficiency>
0

>  <Binding Efficiency>
0

>  <Surface Efficiency>
0

>  <Assay Index>
581973

>  <Assay Category>


>  <Assay Organism>
Homo sapiens

>  <Target ID>
17045

>  <Target Name>
Cytochrome P450 3A4

>  <Target Organism>
Homo sapiens

>  <Target Description>
Target is a single protein chain

>  <Sequence Accession>
P08684

>  <Reference>
Curr Drug Metab 6 (1), 413-454 (2005)

>  <Pubmed ID>
16248836

>  <DOI>
10.2174/138920005774330639

$$$$
447087
Actelion Java MolfileCreator 1.0

 33 34  0  0  1  0  0  0  0  0999 V2000
    0.0000   -0.0000   -0.0000 O   0  0  0  0  0  0  0  0  0  0  0  0
    1.2738   -0.7515   -0.0000 C   0  0  0  0  0  0  0  0  0  0  0  0
   -1.3247   -0.7515   -0.0000 C   0  0  0  0  0  0  0  0  0  0  0  0
    1.2610   -2.2419   -0.0000 C   0  0  0  0  0  0  0  0  0  0  0  0
    2.5603    0.0255   -0.0000 C   0  0  0  0  0  0  0  0  0  0  0  0
   -0.0382   -2.9807   -0.0000 O   0  0  0  0  0  0  0  0  0  0  0  0
    2.5603   -2.9424   -0.0000 C   0  0  0  0  0  0  0  0  0  0  0  0
    3.8086   -0.7261   -0.0000 C   0  0  0  0  0  0  0  0  0  0  0  0
   -1.3884   -2.2164   -0.0000 C   0  0  0  0  0  0  0  0  0  0  0  0
    3.8214   -2.1654   -0.0000 C   0  0  0  0  0  0  0  0  0  0  0  0
    5.1461    0.0892   -0.0000 C   0  0  0  0  0  0  0  0  0  0  0  0
    5.9104   -1.2101   -0.0000 C   0  0  0  0  0  0  0  0  0  0  0  0
    5.1334    1.7196   -0.0000 C   0  0  0  0  0  0  0  0  0  0  0  0
    6.4199    0.8534   -0.0000 C   0  0  0  0  0  0  0  0  0  0  0  0
    6.6746   -2.5348   -0.0000 N   0  0  0  0  0  0  0  0  0  0  0  0
    3.6685    2.4202   -0.0000 C   0  0  0  0  0  0  0  0  0  0  0  0
    6.3180    2.5094   -0.0000 C   0  0  0  0  0  0  0  0  0  0  0  0
    7.7574    0.1783   -0.0000 C   0  0  0  0  0  0  0  0  0  0  0  0
    9.0057    0.9426   -0.0000 C   0  0  0  0  0  0  0  0  0  0  0  0
   10.3049    0.2675   -0.0000 N   0  0  0  0  0  0  0  0  0  0  0  0
   11.5660    1.0445   -0.0000 C   0  0  0  0  0  0  0  0  0  0  0  0
   10.2922   -1.2738   -0.0000 C   0  0  0  0  0  0  0  0  0  0  0  0
   12.8652    0.3057   -0.0000 C   0  0  0  0  0  0  0  0  0  0  0  0
   14.1645    1.1209   -0.0000 C   0  0  0  0  0  0  0  0  0  0  0  0
   15.4510    0.4203   -0.0000 C   0  0  0  0  0  0  0  0  0  0  0  0
   14.1518    2.6367   -0.0000 C   0  0  0  0  0  0  0  0  0  0  0  0
   16.7248    1.2101   -0.0000 C   0  0  0  0  0  0  0  0  0  0  0  0
   15.4128    3.4137   -0.0000 C   0  0  0  0  0  0  0  0  0  0  0  0
   18.0495    0.5223   -0.0000 O   0  0  0  0  0  0  0  0  0  0  0  0
   16.6866    2.7132   -0.0000 C   0  0  0  0  0  0  0  0  0  0  0  0
   19.3106    1.3247   -0.0000 C   0  0  0  0  0  0  0  0  0  0  0  0
   17.9476    3.5411   -0.0000 O   0  0  0  0  0  0  0  0  0  0  0  0
   19.2342    2.8788   -0.0000 C   0  0  0  0  0  0  0  0  0  0  0  0
  1  2  1  0  0  0  0
  1  3  1  0  0  0  0
  2  4  2  0  0  0  0
  2  5  1  0  0  0  0
  4  6  1  0  0  0  0
  4  7  1  0  0  0  0
  5  8  2  0  0  0  0
  6  9  1  0  0  0  0
  7 10  2  0  0  0  0
  8 11  1  0  0  0  0
 11 12  1  0  0  0  0
 11 13  1  0  0  0  0
 11 14  1  6  0  0  0
 12 15  3  0  0  0  0
 13 16  1  0  0  0  0
 13 17  1  0  0  0  0
 14 18  1  0  0  0  0
 18 19  1  0  0  0  0
 19 20  1  0  0  0  0
 20 21  1  0  0  0  0
 20 22  1  0  0  0  0
 21 23  1  0  0  0  0
 23 24  1  0  0  0  0
 24 25  2  0  0  0  0
 24 26  1  0  0  0  0
 25 27  1  0  0  0  0
 26 28  2  0  0  0  0
 27 29  1  0  0  0  0
 27 30  2  0  0  0  0
 29 31  1  0  0  0  0
 30 32  1  0  0  0  0
 32 33  1  0  0  0  0
  8 10  1  0  0  0  0
 28 30  1  0  0  0  0
M  END
>  <MolRegNo>
447087

>  <m>
=

>  <Value>
5100

>  <Unit>
nM

>  <Type>
Ki

>  <pValue>
5.29

>  <Ligand Efficiency>
0

>  <Binding Efficiency>
0

>  <Surface Efficiency>
0

>  <Assay Index>
581973

>  <Assay Category>


>  <Assay Organism>
Homo sapiens

>  <Target ID>
17045

>  <Target Name>
Cytochrome P450 3A4

>  <Target Organism>
Homo sapiens

>  <Target Description>
Target is a single protein chain

>  <Sequence Accession>
P08684

>  <Reference>
Curr Drug Metab 6 (1), 413-454 (2005)

>  <Pubmed ID>
16248836

>  <DOI>
10.2174/138920005774330639

$$$$
705913
Actelion Java MolfileCreator 1.0

 28 32  0  0  1  0  0  0  0  0999 V2000
    0.0000   -0.0000   -0.0000 O   0  0  0  0  0  0  0  0  0  0  0  0
   -0.4527    1.4336   -0.0000 C   0  0  0  0  0  0  0  0  0  0  0  0
    0.4024    2.6786   -0.0000 O   0  0  0  0  0  0  0  0  0  0  0  0
   -1.9743    1.8863   -0.0000 C   0  0  0  0  0  0  0  0  0  0  0  0
   -0.4779    3.9110   -0.0000 C   0  0  0  0  0  0  0  0  0  0  0  0
   -3.2822    1.1444   -0.0000 C   0  0  0  0  0  0  0  0  0  0  0  0
   -1.9869    3.4960   -0.0000 C   0  0  0  0  0  0  0  0  0  0  0  0
   -0.0503    5.3446   -0.0000 C   0  0  0  0  0  0  0  0  0  0  0  0
   -3.2948   -0.2892   -0.0000 O   0  0  0  0  0  0  0  0  0  0  0  0
   -4.6529    1.9115   -0.0000 C   0  0  0  0  0  0  0  0  0  0  0  0
   -3.2948    4.2631   -0.0000 C   0  0  0  0  0  0  0  0  0  0  0  0
    1.1821    6.1117   -0.0000 N   0  0  0  0  0  0  0  0  0  0  0  0
   -1.3204    6.1117   -0.0000 C   0  0  0  0  0  0  0  0  0  0  0  0
   -4.5649   -1.0312   -0.0000 C   0  0  0  0  0  0  0  0  0  0  0  0
   -5.9608    1.2072   -0.0000 O   0  0  0  0  0  0  0  0  0  0  0  0
   -4.6655    3.5211   -0.0000 C   0  0  0  0  0  0  0  0  0  0  0  0
    1.1695    7.5956   -0.0000 C   0  0  0  0  0  0  0  0  0  0  0  0
    2.4271    5.4074   -0.0000 C   0  0  0  0  0  0  0  0  0  0  0  0
   -1.3330    7.5956   -0.0000 C   0  0  0  0  0  0  0  0  0  0  0  0
   -2.5905    5.3697   -0.0000 C   0  0  0  0  0  0  0  0  0  0  0  0
   -7.2183    1.9366   -0.0000 C   0  0  0  0  0  0  0  0  0  0  0  0
   -0.0880    8.3375   -0.0000 C   0  0  0  0  0  0  0  0  0  0  0  0
   -2.6031    8.3375   -0.0000 C   0  0  0  0  0  0  0  0  0  0  0  0
   -3.9235    6.1368   -0.0000 C   0  0  0  0  0  0  0  0  0  0  0  0
   -3.9361    7.6207   -0.0000 C   0  0  0  0  0  0  0  0  0  0  0  0
   -5.3320    5.6464   -0.0000 O   0  0  0  0  0  0  0  0  0  0  0  0
   -5.3446    8.0609   -0.0000 O   0  0  0  0  0  0  0  0  0  0  0  0
   -6.1620    6.9039   -0.0000 C   0  0  0  0  0  0  0  0  0  0  0  0
  1  2  2  0  0  0  0
  2  3  1  0  0  0  0
  2  4  1  0  0  0  0
  5  3  1  1  0  0  0
  4  6  2  0  0  0  0
  4  7  1  0  0  0  0
  5  8  1  0  0  0  0
  6  9  1  0  0  0  0
  6 10  1  0  0  0  0
  7 11  2  0  0  0  0
  8 12  1  1  0  0  0
  8 13  1  0  0  0  0
  9 14  1  0  0  0  0
 10 15  1  0  0  0  0
 10 16  2  0  0  0  0
 12 17  1  0  0  0  0
 12 18  1  0  0  0  0
 13 19  2  0  0  0  0
 13 20  1  0  0  0  0
 15 21  1  0  0  0  0
 17 22  1  0  0  0  0
 19 23  1  0  0  0  0
 20 24  2  0  0  0  0
 23 25  2  0  0  0  0
 24 26  1  0  0  0  0
 25 27  1  0  0  0  0
 26 28  1  0  0  0  0
  5  7  1  0  0  0  0
 11 16  1  0  0  0  0
 19 22  1  0  0  0  0
 24 25  1  0  0  0  0
 27 28  1  0  0  0  0
M  END
>  <MolRegNo>
705913

>  <m>
=

>  <Value>
110000

>  <Unit>
nM

>  <Type>
Ki

>  <pValue>
0

>  <Ligand Efficiency>
0

>  <Binding Efficiency>
0

>  <Surface Efficiency>
0

>  <Assay Index>
581975

>  <Assay Category>


>  <Assay Organism>
Homo sapiens

>  <Target ID>
17045

>  <Target Name>
Cytochrome P450 3A4

>  <Target Organism>
Homo sapiens

>  <Target Description>
Target is a single protein chain

>  <Sequence Accession>
P08684

>  <Reference>
Curr Drug Metab 6 (1), 413-454 (2005)

>  <Pubmed ID>
16248836

>  <DOI>
10.2174/138920005774330639

$$$$
17347
Actelion Java MolfileCreator 1.0

 35 37  0  0  0  0  0  0  0  0999 V2000
    0.0000   -0.0000   -0.0000 S   0  0  0  0  0  0  0  0  0  0  0  0
   -0.0123    1.2635   -0.0000 O   0  0  0  0  0  0  0  0  0  0  0  0
   -1.0918    0.6379   -0.0000 O   0  0  0  0  0  0  0  0  0  0  0  0
   -1.3616   -0.7606   -0.0000 N   0  0  0  0  0  0  0  0  0  0  0  0
    1.3371   -0.7728   -0.0000 C   0  0  0  0  0  0  0  0  0  0  0  0
   -2.7233    0.0368   -0.0000 C   0  0  0  0  0  0  0  0  0  0  0  0
   -1.3862   -2.3062   -0.0000 C   0  0  0  0  0  0  0  0  0  0  0  0
    1.3248   -2.3185   -0.0000 C   0  0  0  0  0  0  0  0  0  0  0  0
    2.6742    0.0123   -0.0000 C   0  0  0  0  0  0  0  0  0  0  0  0
   -4.0849   -0.7238   -0.0000 C   0  0  0  0  0  0  0  0  0  0  0  0
   -2.7478   -3.0668   -0.0000 C   0  0  0  0  0  0  0  0  0  0  0  0
    2.6620   -3.0913   -0.0000 C   0  0  0  0  0  0  0  0  0  0  0  0
    4.0113   -0.7606   -0.0000 C   0  0  0  0  0  0  0  0  0  0  0  0
   -4.0972   -1.9627   -0.0000 O   0  0  0  0  0  0  0  0  0  0  0  0
   -5.4466    0.0736   -0.0000 C   0  0  0  0  0  0  0  0  0  0  0  0
   -2.7724   -4.3058   -0.0000 C   0  0  0  0  0  0  0  0  0  0  0  0
   -3.8396   -2.4289   -0.0000 C   0  0  0  0  0  0  0  0  0  0  0  0
    3.9991   -2.3062   -0.0000 C   0  0  0  0  0  0  0  0  0  0  0  0
   -6.8082   -0.6870   -0.0000 N   0  0  0  0  0  0  0  0  0  0  0  0
   -5.4589    1.6438   -0.0000 C   0  0  0  0  0  0  0  0  0  0  0  0
    5.0663   -2.9196   -0.0000 N   0  0  0  0  0  0  0  0  0  0  0  0
   -8.1699    0.1104   -0.0000 C   0  0  0  0  0  0  0  0  0  0  0  0
   -4.1217    2.4289   -0.0000 C   0  0  0  0  0  0  0  0  0  0  0  0
   -8.1822    1.3739   -0.0000 O   0  0  0  0  0  0  0  0  0  0  0  0
   -9.5315   -0.6502   -0.0000 O   0  0  0  0  0  0  0  0  0  0  0  0
   -4.1340    3.9991   -0.0000 C   0  0  0  0  0  0  0  0  0  0  0  0
   -2.7846    1.6561   -0.0000 C   0  0  0  0  0  0  0  0  0  0  0  0
  -10.8932    0.1472   -0.0000 C   0  0  0  0  0  0  0  0  0  0  0  0
   -2.7969    4.7842   -0.0000 C   0  0  0  0  0  0  0  0  0  0  0  0
   -1.4475    2.4412   -0.0000 C   0  0  0  0  0  0  0  0  0  0  0  0
  -11.0404    1.6929   -0.0000 C   0  0  0  0  0  0  0  0  0  0  0  0
  -12.3162   -0.4784   -0.0000 C   0  0  0  0  0  0  0  0  0  0  0  0
   -1.4598    4.0113   -0.0000 C   0  0  0  0  0  0  0  0  0  0  0  0
  -12.5738    2.0363   -0.0000 O   0  0  0  0  0  0  0  0  0  0  0  0
  -13.3589    0.6992   -0.0000 C   0  0  0  0  0  0  0  0  0  0  0  0
  1  2  2  0  0  0  0
  1  3  2  0  0  0  0
  1  4  1  0  0  0  0
  1  5  1  0  0  0  0
  4  6  1  0  0  0  0
  4  7  1  0  0  0  0
  5  8  2  0  0  0  0
  5  9  1  0  0  0  0
  6 10  1  0  0  0  0
  7 11  1  0  0  0  0
  8 12  1  0  0  0  0
  9 13  2  0  0  0  0
 10 14  1  1  0  0  0
 10 15  1  0  0  0  0
 11 16  1  0  0  0  0
 11 17  1  0  0  0  0
 12 18  2  0  0  0  0
 15 19  1  1  0  0  0
 15 20  1  0  0  0  0
 18 21  1  0  0  0  0
 19 22  1  0  0  0  0
 20 23  1  0  0  0  0
 22 24  2  0  0  0  0
 22 25  1  0  0  0  0
 23 26  2  0  0  0  0
 23 27  1  0  0  0  0
 28 25  1  1  0  0  0
 26 29  1  0  0  0  0
 27 30  2  0  0  0  0
 28 31  1  0  0  0  0
 28 32  1  0  0  0  0
 29 33  2  0  0  0  0
 31 34  1  0  0  0  0
 32 35  1  0  0  0  0
 13 18  1  0  0  0  0
 30 33  1  0  0  0  0
 34 35  1  0  0  0  0
M  END
>  <MolRegNo>
17347

>  <m>
=

>  <Value>
260

>  <Unit>
nM

>  <Type>
Ki

>  <pValue>
6.58

>  <Ligand Efficiency>
0

>  <Binding Efficiency>
0

>  <Surface Efficiency>
0

>  <Assay Index>
581976

>  <Assay Category>


>  <Assay Organism>
Homo sapiens

>  <Target ID>
17045

>  <Target Name>
Cytochrome P450 3A4

>  <Target Organism>
Homo sapiens

>  <Target Description>
Target is a single protein chain

>  <Sequence Accession>
P08684

>  <Reference>
Curr Drug Metab 6 (1), 413-454 (2005)

>  <Pubmed ID>
16248836

>  <DOI>
10.2174/138920005774330639

$$$$
37316
Actelion Java MolfileCreator 1.0

 46 49  0  0  1  0  0  0  0  0999 V2000
    0.0000   -0.0000   -0.0000 O   0  0  0  0  0  0  0  0  0  0  0  0
   -0.0120    1.5196   -0.0000 C   0  0  0  0  0  0  0  0  0  0  0  0
   -1.2922    2.2973   -0.0000 N   0  0  0  0  0  0  0  0  0  0  0  0
    1.2444    2.2973   -0.0000 N   0  0  0  0  0  0  0  0  0  0  0  0
   -2.5964    1.5435   -0.0000 C   0  0  0  0  0  0  0  0  0  0  0  0
   -1.3042    3.7809   -0.0000 C   0  0  0  0  0  0  0  0  0  0  0  0
    1.2324    3.8168   -0.0000 C   0  0  0  0  0  0  0  0  0  0  0  0
   -3.8647    2.3212   -0.0000 C   0  0  0  0  0  0  0  0  0  0  0  0
   -2.6084    0.0479   -0.0000 C   0  0  0  0  0  0  0  0  0  0  0  0
   -0.0479    4.5826   -0.0000 C   0  0  0  0  0  0  0  0  0  0  0  0
   -3.8767    3.8049   -0.0000 O   0  0  0  0  0  0  0  0  0  0  0  0
   -5.1689    1.5674   -0.0000 N   0  0  0  0  0  0  0  0  0  0  0  0
   -1.4119   -0.6820   -0.0000 C   0  0  0  0  0  0  0  0  0  0  0  0
   -3.9365   -0.6341   -0.0000 C   0  0  0  0  0  0  0  0  0  0  0  0
   -6.4970    2.3451   -0.0000 C   0  0  0  0  0  0  0  0  0  0  0  0
   -6.5090    3.8767   -0.0000 C   0  0  0  0  0  0  0  0  0  0  0  0
   -7.8012    1.5913   -0.0000 C   0  0  0  0  0  0  0  0  0  0  0  0
   -5.8150    5.1330   -0.0000 C   0  0  0  0  0  0  0  0  0  0  0  0
   -9.1174    2.3691   -0.0000 C   0  0  0  0  0  0  0  0  0  0  0  0
   -4.3074    5.1210   -0.0000 C   0  0  0  0  0  0  0  0  0  0  0  0
   -6.5329    6.3893   -0.0000 C   0  0  0  0  0  0  0  0  0  0  0  0
   -9.1293    3.8527   -0.0000 O   0  0  0  0  0  0  0  0  0  0  0  0
  -10.4335    1.6153   -0.0000 C   0  0  0  0  0  0  0  0  0  0  0  0
   -3.6015    6.4013   -0.0000 C   0  0  0  0  0  0  0  0  0  0  0  0
   -5.8030    7.7174   -0.0000 C   0  0  0  0  0  0  0  0  0  0  0  0
  -11.7377    2.3930   -0.0000 N   0  0  0  0  0  0  0  0  0  0  0  0
  -10.4455    0.1197   -0.0000 C   0  0  0  0  0  0  0  0  0  0  0  0
   -4.3553    7.6935   -0.0000 C   0  0  0  0  0  0  0  0  0  0  0  0
  -13.0419    1.6392   -0.0000 C   0  0  0  0  0  0  0  0  0  0  0  0
   -9.1532   -0.5624   -0.0000 C   0  0  0  0  0  0  0  0  0  0  0  0
  -13.0538    0.1436   -0.0000 O   0  0  0  0  0  0  0  0  0  0  0  0
  -14.3461    2.4169   -0.0000 C   0  0  0  0  0  0  0  0  0  0  0  0
   -7.8610    0.1914   -0.0000 C   0  0  0  0  0  0  0  0  0  0  0  0
   -9.1652   -2.0221   -0.0000 C   0  0  0  0  0  0  0  0  0  0  0  0
  -15.6742    1.6631   -0.0000 O   0  0  0  0  0  0  0  0  0  0  0  0
   -6.5808   -0.5384   -0.0000 C   0  0  0  0  0  0  0  0  0  0  0  0
   -7.8730   -2.7879   -0.0000 C   0  0  0  0  0  0  0  0  0  0  0  0
  -17.0262    2.4409   -0.0000 C   0  0  0  0  0  0  0  0  0  0  0  0
   -6.5927   -1.9982   -0.0000 C   0  0  0  0  0  0  0  0  0  0  0  0
  -18.3304    1.6512   -0.0000 C   0  0  0  0  0  0  0  0  0  0  0  0
  -17.0382    3.9604   -0.0000 C   0  0  0  0  0  0  0  0  0  0  0  0
  -19.6825    2.4648   -0.0000 C   0  0  0  0  0  0  0  0  0  0  0  0
  -18.3424    0.1675   -0.0000 C   0  0  0  0  0  0  0  0  0  0  0  0
  -18.3424    4.7621   -0.0000 C   0  0  0  0  0  0  0  0  0  0  0  0
  -15.7101    4.7262   -0.0000 C   0  0  0  0  0  0  0  0  0  0  0  0
  -19.6944    3.9844   -0.0000 C   0  0  0  0  0  0  0  0  0  0  0  0
  1  2  2  0  0  0  0
  2  3  1  0  0  0  0
  2  4  1  0  0  0  0
  5  3  1  1  0  0  0
  3  6  1  0  0  0  0
  4  7  1  0  0  0  0
  5  8  1  0  0  0  0
  5  9  1  0  0  0  0
  6 10  1  0  0  0  0
  8 11  2  0  0  0  0
  8 12  1  0  0  0  0
  9 13  1  0  0  0  0
  9 14  1  0  0  0  0
 15 12  1  6  0  0  0
 15 16  1  0  0  0  0
 15 17  1  0  0  0  0
 16 18  1  0  0  0  0
 17 19  1  0  0  0  0
 18 20  2  0  0  0  0
 18 21  1  0  0  0  0
 19 22  1  1  0  0  0
 19 23  1  0  0  0  0
 20 24  1  0  0  0  0
 21 25  2  0  0  0  0
 23 26  1  6  0  0  0
 23 27  1  0  0  0  0
 24 28  2  0  0  0  0
 26 29  1  0  0  0  0
 27 30  1  0  0  0  0
 29 31  2  0  0  0  0
 29 32  1  0  0  0  0
 30 33  2  0  0  0  0
 30 34  1  0  0  0  0
 32 35  1  0  0  0  0
 33 36  1  0  0  0  0
 34 37  2  0  0  0  0
 35 38  1  0  0  0  0
 36 39  2  0  0  0  0
 38 40  2  0  0  0  0
 38 41  1  0  0  0  0
 40 42  1  0  0  0  0
 40 43  1  0  0  0  0
 41 44  2  0  0  0  0
 41 45  1  0  0  0  0
 42 46  2  0  0  0  0
  7 10  1  0  0  0  0
 25 28  1  0  0  0  0
 37 39  1  0  0  0  0
 44 46  1  0  0  0  0
M  END
>  <MolRegNo>
37316

>  <m>
=

>  <Value>
410

>  <Unit>
nM

>  <Type>
Ki

>  <pValue>
6.39

>  <Ligand Efficiency>
0

>  <Binding Efficiency>
0

>  <Surface Efficiency>
0

>  <Assay Index>
581976

>  <Assay Category>


>  <Assay Organism>
Homo sapiens

>  <Target ID>
17045

>  <Target Name>
Cytochrome P450 3A4

>  <Target Organism>
Homo sapiens

>  <Target Description>
Target is a single protein chain

>  <Sequence Accession>
P08684

>  <Reference>
Curr Drug Metab 6 (1), 413-454 (2005)

>  <Pubmed ID>
16248836

>  <DOI>
10.2174/138920005774330639

$$$$
1171293
Actelion Java MolfileCreator 1.0

 31 33  0  0  0  0  0  0  0  0999 V2000
    0.0000   -0.0000   -0.0000 Cl  0  0  0  0  0  0  0  0  0  0  0  0
   -7.5053    1.9951   -0.0000 F   0  0  0  0  0  0  0  0  0  0  0  0
   -6.0090    2.0545   -0.0000 C   0  0  0  0  0  0  0  0  0  0  0  0
   -5.2371    0.7838   -0.0000 C   0  0  0  0  0  0  0  0  0  0  0  0
   -5.2965    3.3964   -0.0000 C   0  0  0  0  0  0  0  0  0  0  0  0
   -3.7527    0.8432   -0.0000 C   0  0  0  0  0  0  0  0  0  0  0  0
   -3.8002    3.4439   -0.0000 C   0  0  0  0  0  0  0  0  0  0  0  0
   -3.0401    2.1732   -0.0000 C   0  0  0  0  0  0  0  0  0  0  0  0
   -2.7551   -0.2613   -0.0000 C   0  0  0  0  0  0  0  0  0  0  0  0
   -1.5438    2.2207   -0.0000 C   0  0  0  0  0  0  0  0  0  0  0  0
   -3.2183   -1.6863   -0.0000 N   0  0  0  0  0  0  0  0  0  0  0  0
   -0.0594    2.2682   -0.0000 N   0  0  0  0  0  0  0  0  0  0  0  0
   -4.6552   -2.1495   -0.0000 C   0  0  0  0  0  0  0  0  0  0  0  0
   -2.3395   -2.8858   -0.0000 C   0  0  0  0  0  0  0  0  0  0  0  0
   -5.9734   -1.3776   -0.0000 C   0  0  0  0  0  0  0  0  0  0  0  0
   -4.6552   -3.6339   -0.0000 C   0  0  0  0  0  0  0  0  0  0  0  0
   -0.8432   -2.8620   -0.0000 N   0  0  0  0  0  0  0  0  0  0  0  0
   -3.2301   -4.0852   -0.0000 C   0  0  0  0  0  0  0  0  0  0  0  0
   -5.9853    0.1425   -0.0000 O   0  0  0  0  0  0  0  0  0  0  0  0
   -7.2797   -2.1257   -0.0000 N   0  0  0  0  0  0  0  0  0  0  0  0
   -5.9734   -4.3821   -0.0000 N   0  0  0  0  0  0  0  0  0  0  0  0
   -0.1188   -1.5438   -0.0000 C   0  0  0  0  0  0  0  0  0  0  0  0
   -0.1069   -4.1446   -0.0000 C   0  0  0  0  0  0  0  0  0  0  0  0
   -7.2916   -3.6220   -0.0000 C   0  0  0  0  0  0  0  0  0  0  0  0
   -8.5979   -1.3657   -0.0000 C   0  0  0  0  0  0  0  0  0  0  0  0
   -5.9853   -5.8784   -0.0000 C   0  0  0  0  0  0  0  0  0  0  0  0
    1.3776   -1.5319   -0.0000 C   0  0  0  0  0  0  0  0  0  0  0  0
    1.3776   -4.1327   -0.0000 C   0  0  0  0  0  0  0  0  0  0  0  0
   -8.6098   -4.3583   -0.0000 O   0  0  0  0  0  0  0  0  0  0  0  0
    2.1138   -0.2138   -0.0000 N   0  0  0  0  0  0  0  0  0  0  0  0
    2.1257   -2.8264   -0.0000 C   0  0  0  0  0  0  0  0  0  0  0  0
  2  3  1  0  0  0  0
  3  4  2  0  0  0  0
  3  5  1  0  0  0  0
  4  6  1  0  0  0  0
  5  7  2  0  0  0  0
  6  8  2  0  0  0  0
  6  9  1  0  0  0  0
  8 10  1  0  0  0  0
  9 11  1  0  0  0  0
 10 12  3  0  0  0  0
 11 13  1  0  0  0  0
 11 14  1  0  0  0  0
 13 15  1  0  0  0  0
 13 16  2  0  0  0  0
 14 17  1  0  0  0  0
 14 18  2  0  0  0  0
 15 19  2  0  0  0  0
 15 20  1  0  0  0  0
 16 21  1  0  0  0  0
 17 22  1  0  0  0  0
 17 23  1  0  0  0  0
 20 24  1  0  0  0  0
 20 25  1  0  0  0  0
 21 26  1  0  0  0  0
 22 27  1  0  0  0  0
 23 28  1  0  0  0  0
 24 29  2  0  0  0  0
 27 30  1  1  0  0  0
 27 31  1  0  0  0  0
  7  8  1  0  0  0  0
 16 18  1  0  0  0  0
 21 24  1  0  0  0  0
 28 31  1  0  0  0  0
M  END
>  <MolRegNo>
1171293

>  <m>
=

>  <Value>
0.026

>  <Unit>
nM

>  <Type>
Ki

>  <pValue>
10.59

>  <Ligand Efficiency>
0

>  <Binding Efficiency>
0

>  <Surface Efficiency>
0

>  <Assay Index>
607123

>  <Assay Category>


>  <Assay Organism>
Homo sapiens

>  <Target ID>
17045

>  <Target Name>
Cytochrome P450 3A4

>  <Target Organism>
Homo sapiens

>  <Target Description>
Target is a single protein chain

>  <Sequence Accession>
P08684

>  <Reference>
Bioorg Med Chem 19 (18), 5490-5499 (2011)

>  <Pubmed ID>
21865048

>  <DOI>
10.1016/j.bmc.2011.07.042

$$$$
1171295
Actelion Java MolfileCreator 1.0

 32 35  0  0  0  0  0  0  0  0999 V2000
    0.0000   -0.0000   -0.0000 F   0  0  0  0  0  0  0  0  0  0  0  0
    1.4940    0.0593   -0.0000 C   0  0  0  0  0  0  0  0  0  0  0  0
    2.2647   -1.2094   -0.0000 C   0  0  0  0  0  0  0  0  0  0  0  0
    2.2054    1.3991   -0.0000 C   0  0  0  0  0  0  0  0  0  0  0  0
    3.7468   -1.1501   -0.0000 C   0  0  0  0  0  0  0  0  0  0  0  0
    3.6994    1.4466   -0.0000 C   0  0  0  0  0  0  0  0  0  0  0  0
    4.4582    0.1779   -0.0000 C   0  0  0  0  0  0  0  0  0  0  0  0
    4.7547   -2.2528   -0.0000 C   0  0  0  0  0  0  0  0  0  0  0  0
    5.9522    0.2253   -0.0000 C   0  0  0  0  0  0  0  0  0  0  0  0
    4.2804   -3.6757   -0.0000 N   0  0  0  0  0  0  0  0  0  0  0  0
    7.4462    0.2727   -0.0000 N   0  0  0  0  0  0  0  0  0  0  0  0
    2.8457   -4.1381   -0.0000 C   0  0  0  0  0  0  0  0  0  0  0  0
    5.1578   -4.8732   -0.0000 C   0  0  0  0  0  0  0  0  0  0  0  0
    1.5296   -3.3674   -0.0000 C   0  0  0  0  0  0  0  0  0  0  0  0
    2.8457   -5.6202   -0.0000 C   0  0  0  0  0  0  0  0  0  0  0  0
    6.6518   -4.8495   -0.0000 N   0  0  0  0  0  0  0  0  0  0  0  0
    4.2685   -6.0826   -0.0000 C   0  0  0  0  0  0  0  0  0  0  0  0
    1.5177   -1.8497   -0.0000 O   0  0  0  0  0  0  0  0  0  0  0  0
    0.2253   -4.1144   -0.0000 N   0  0  0  0  0  0  0  0  0  0  0  0
    1.5177   -6.3672   -0.0000 N   0  0  0  0  0  0  0  0  0  0  0  0
    7.3751   -3.5334   -0.0000 C   0  0  0  0  0  0  0  0  0  0  0  0
    7.3869   -6.1419   -0.0000 C   0  0  0  0  0  0  0  0  0  0  0  0
    0.2134   -5.6084   -0.0000 C   0  0  0  0  0  0  0  0  0  0  0  0
   -1.0908   -3.3555   -0.0000 C   0  0  0  0  0  0  0  0  0  0  0  0
    1.5058   -7.8612   -0.0000 C   0  0  0  0  0  0  0  0  0  0  0  0
    8.8690   -3.5215   -0.0000 C   0  0  0  0  0  0  0  0  0  0  0  0
    8.8690   -6.1301   -0.0000 C   0  0  0  0  0  0  0  0  0  0  0  0
   -1.1027   -6.3435   -0.0000 O   0  0  0  0  0  0  0  0  0  0  0  0
   10.1615   -2.7508   -0.0000 N   0  0  0  0  0  0  0  0  0  0  0  0
    9.6160   -4.8139   -0.0000 C   0  0  0  0  0  0  0  0  0  0  0  0
    8.8453   -2.0038   -0.0000 C   0  0  0  0  0  0  0  0  0  0  0  0
   10.1377   -1.2331   -0.0000 C   0  0  0  0  0  0  0  0  0  0  0  0
  1  2  1  0  0  0  0
  2  3  2  0  0  0  0
  2  4  1  0  0  0  0
  3  5  1  0  0  0  0
  4  6  2  0  0  0  0
  5  7  2  0  0  0  0
  5  8  1  0  0  0  0
  7  9  1  0  0  0  0
  8 10  1  0  0  0  0
  9 11  3  0  0  0  0
 10 12  1  0  0  0  0
 10 13  1  0  0  0  0
 12 14  1  0  0  0  0
 12 15  2  0  0  0  0
 13 16  1  0  0  0  0
 13 17  2  0  0  0  0
 14 18  2  0  0  0  0
 14 19  1  0  0  0  0
 15 20  1  0  0  0  0
 16 21  1  0  0  0  0
 16 22  1  0  0  0  0
 19 23  1  0  0  0  0
 19 24  1  0  0  0  0
 20 25  1  0  0  0  0
 21 26  1  0  0  0  0
 22 27  1  0  0  0  0
 23 28  2  0  0  0  0
 26 29  1  1  0  0  0
 26 30  1  0  0  0  0
 26 31  1  0  0  0  0
 31 32  1  0  0  0  0
  6  7  1  0  0  0  0
 15 17  1  0  0  0  0
 20 23  1  0  0  0  0
 27 30  1  0  0  0  0
M  END
>  <MolRegNo>
1171295

>  <m>
=

>  <Value>
0.022

>  <Unit>
nM

>  <Type>
Ki

>  <pValue>
10.66

>  <Ligand Efficiency>
0

>  <Binding Efficiency>
0

>  <Surface Efficiency>
0

>  <Assay Index>
607123

>  <Assay Category>


>  <Assay Organism>
Homo sapiens

>  <Target ID>
17045

>  <Target Name>
Cytochrome P450 3A4

>  <Target Organism>
Homo sapiens

>  <Target Description>
Target is a single protein chain

>  <Sequence Accession>
P08684

>  <Reference>
Bioorg Med Chem 19 (18), 5490-5499 (2011)

>  <Pubmed ID>
21865048

>  <DOI>
10.1016/j.bmc.2011.07.042

$$$$
481748
Actelion Java MolfileCreator 1.0

 24 27  0  0  0  0  0  0  0  0999 V2000
    0.0000   -0.0000   -0.0000 O   0  0  0  0  0  0  0  0  0  0  0  0
    1.2885   -0.7397   -0.0000 C   0  0  0  0  0  0  0  0  0  0  0  0
   -0.0119    1.5152   -0.0000 C   0  0  0  0  0  0  0  0  0  0  0  0
    2.5771    0.0239   -0.0000 C   0  0  0  0  0  0  0  0  0  0  0  0
    1.2766   -2.2430   -0.0000 C   0  0  0  0  0  0  0  0  0  0  0  0
    1.2766    2.2788   -0.0000 C   0  0  0  0  0  0  0  0  0  0  0  0
   -0.0358    3.0424   -0.0000 C   0  0  0  0  0  0  0  0  0  0  0  0
   -1.3363    0.7874   -0.0000 C   0  0  0  0  0  0  0  0  0  0  0  0
    3.8656   -0.7039   -0.0000 C   0  0  0  0  0  0  0  0  0  0  0  0
    2.5651    1.5271   -0.0000 C   0  0  0  0  0  0  0  0  0  0  0  0
    2.5771   -2.9827   -0.0000 C   0  0  0  0  0  0  0  0  0  0  0  0
    5.1541    0.0716   -0.0000 O   0  0  0  0  0  0  0  0  0  0  0  0
    3.8537   -2.2072   -0.0000 C   0  0  0  0  0  0  0  0  0  0  0  0
    6.4546   -0.6801   -0.0000 C   0  0  0  0  0  0  0  0  0  0  0  0
    5.1422   -2.9469   -0.0000 C   0  0  0  0  0  0  0  0  0  0  0  0
    6.4426   -2.1833   -0.0000 C   0  0  0  0  0  0  0  0  0  0  0  0
    7.7312   -2.9231   -0.0000 C   0  0  0  0  0  0  0  0  0  0  0  0
    7.7073   -4.4263   -0.0000 C   0  0  0  0  0  0  0  0  0  0  0  0
    9.0197   -2.1595   -0.0000 C   0  0  0  0  0  0  0  0  0  0  0  0
    6.3830   -5.1660   -0.0000 O   0  0  0  0  0  0  0  0  0  0  0  0
    8.9958   -5.1780   -0.0000 C   0  0  0  0  0  0  0  0  0  0  0  0
   10.3082   -2.8992   -0.0000 C   0  0  0  0  0  0  0  0  0  0  0  0
   10.2963   -4.4144   -0.0000 C   0  0  0  0  0  0  0  0  0  0  0  0
   11.5848   -5.1541   -0.0000 O   0  0  0  0  0  0  0  0  0  0  0  0
  1  2  1  0  0  0  0
  1  3  1  0  0  0  0
  2  4  2  0  0  0  0
  2  5  1  0  0  0  0
  3  6  1  0  0  0  0
  3  7  1  0  0  0  0
  3  8  1  0  0  0  0
  4  9  1  0  0  0  0
  4 10  1  0  0  0  0
  5 11  2  0  0  0  0
  9 12  1  0  0  0  0
  9 13  2  0  0  0  0
 12 14  1  0  0  0  0
 13 15  1  0  0  0  0
 14 16  1  0  0  0  0
 16 17  1  1  0  0  0
 17 18  2  0  0  0  0
 17 19  1  0  0  0  0
 18 20  1  0  0  0  0
 18 21  1  0  0  0  0
 19 22  2  0  0  0  0
 21 23  2  0  0  0  0
 23 24  1  0  0  0  0
  6 10  2  0  0  0  0
 11 13  1  0  0  0  0
 15 16  1  0  0  0  0
 22 23  1  0  0  0  0
M  END
>  <MolRegNo>
481748

>  <m>
=

>  <Value>
7000

>  <Unit>
nM

>  <Type>
Ki

>  <pValue>
5.16

>  <Ligand Efficiency>
0

>  <Binding Efficiency>
0

>  <Surface Efficiency>
0

>  <Assay Index>
616567

>  <Assay Category>


>  <Assay Organism>
Homo sapiens

>  <Target ID>
17045

>  <Target Name>
Cytochrome P450 3A4

>  <Target Organism>
Homo sapiens

>  <Target Description>
Target is a single protein chain

>  <Sequence Accession>
P08684

>  <Reference>
Curr Drug Metab 6 (1), 413-454 (2005)

>  <Pubmed ID>
16248836

>  <DOI>
10.2174/138920005774330639

$$$$
582954
Actelion Java MolfileCreator 1.0

 33 38  0  0  0  0  0  0  0  0999 V2000
    0.0000   -0.0000   -0.0000 O   0  0  0  0  0  0  0  0  0  0  0  0
    1.4237   -0.4508   -0.0000 C   0  0  0  0  0  0  0  0  0  0  0  0
    2.6338    0.4390   -0.0000 N   0  0  0  0  0  0  0  0  0  0  0  0
    1.8745   -1.8745   -0.0000 C   0  0  0  0  0  0  0  0  0  0  0  0
    3.8439   -0.4271   -0.0000 C   0  0  0  0  0  0  0  0  0  0  0  0
    1.1152   -3.1676   -0.0000 C   0  0  0  0  0  0  0  0  0  0  0  0
    3.3693   -1.8626   -0.0000 C   0  0  0  0  0  0  0  0  0  0  0  0
    5.2675    0.0475   -0.0000 O   0  0  0  0  0  0  0  0  0  0  0  0
    1.8508   -4.4608   -0.0000 N   0  0  0  0  0  0  0  0  0  0  0  0
   -0.4034   -3.1558   -0.0000 C   0  0  0  0  0  0  0  0  0  0  0  0
    4.2473   -3.0727   -0.0000 C   0  0  0  0  0  0  0  0  0  0  0  0
    1.0915   -5.7540   -0.0000 C   0  0  0  0  0  0  0  0  0  0  0  0
   -1.1627   -4.4489   -0.0000 C   0  0  0  0  0  0  0  0  0  0  0  0
   -1.1627   -1.8389   -0.0000 C   0  0  0  0  0  0  0  0  0  0  0  0
    5.7302   -2.9897   -0.0000 C   0  0  0  0  0  0  0  0  0  0  0  0
    3.8439   -4.5201   -0.0000 C   0  0  0  0  0  0  0  0  0  0  0  0
   -0.4271   -5.7421   -0.0000 N   0  0  0  0  0  0  0  0  0  0  0  0
    1.8270   -7.0471   -0.0000 N   0  0  0  0  0  0  0  0  0  0  0  0
   -2.6812   -4.4371   -0.0000 C   0  0  0  0  0  0  0  0  0  0  0  0
   -2.6812   -1.8270   -0.0000 C   0  0  0  0  0  0  0  0  0  0  0  0
    6.2641   -4.3778   -0.0000 C   0  0  0  0  0  0  0  0  0  0  0  0
    6.6675   -1.8033   -0.0000 C   0  0  0  0  0  0  0  0  0  0  0  0
    5.0896   -5.3269   -0.0000 N   0  0  0  0  0  0  0  0  0  0  0  0
    3.3219   -7.0353   -0.0000 C   0  0  0  0  0  0  0  0  0  0  0  0
    1.0677   -8.3403   -0.0000 C   0  0  0  0  0  0  0  0  0  0  0  0
   -3.4524   -3.1202   -0.0000 C   0  0  0  0  0  0  0  0  0  0  0  0
    7.7471   -4.6032   -0.0000 C   0  0  0  0  0  0  0  0  0  0  0  0
    8.1505   -2.0287   -0.0000 C   0  0  0  0  0  0  0  0  0  0  0  0
    4.0574   -8.3284   -0.0000 C   0  0  0  0  0  0  0  0  0  0  0  0
    1.8033   -9.6334   -0.0000 C   0  0  0  0  0  0  0  0  0  0  0  0
    8.6843   -3.4168   -0.0000 C   0  0  0  0  0  0  0  0  0  0  0  0
    3.2982   -9.6216   -0.0000 N   0  0  0  0  0  0  0  0  0  0  0  0
    4.0337  -10.9147   -0.0000 C   0  0  0  0  0  0  0  0  0  0  0  0
  1  2  2  0  0  0  0
  2  3  1  0  0  0  0
  2  4  1  0  0  0  0
  3  5  1  0  0  0  0
  4  6  1  0  0  0  0
  4  7  2  0  0  0  0
  5  8  2  0  0  0  0
  6  9  2  0  0  0  0
  6 10  1  0  0  0  0
  7 11  1  0  0  0  0
  9 12  1  0  0  0  0
 10 13  1  0  0  0  0
 10 14  2  0  0  0  0
 11 15  1  0  0  0  0
 11 16  2  0  0  0  0
 12 17  2  0  0  0  0
 12 18  1  0  0  0  0
 13 19  2  0  0  0  0
 14 20  1  0  0  0  0
 15 21  2  0  0  0  0
 15 22  1  0  0  0  0
 16 23  1  0  0  0  0
 18 24  1  0  0  0  0
 18 25  1  0  0  0  0
 19 26  1  0  0  0  0
 21 27  1  0  0  0  0
 22 28  2  0  0  0  0
 24 29  1  0  0  0  0
 25 30  1  0  0  0  0
 27 31  2  0  0  0  0
 29 32  1  0  0  0  0
 32 33  1  0  0  0  0
  5  7  1  0  0  0  0
 13 17  1  0  0  0  0
 20 26  2  0  0  0  0
 21 23  1  0  0  0  0
 28 31  1  0  0  0  0
 30 32  1  0  0  0  0
M  END
>  <MolRegNo>
582954

>  <m>
=

>  <Value>
2900

>  <Unit>
nM

>  <Type>
Ki

>  <pValue>
5.54

>  <Ligand Efficiency>
0

>  <Binding Efficiency>
0

>  <Surface Efficiency>
0

>  <Assay Index>
680172

>  <Assay Category>


>  <Assay Organism>
Homo sapiens

>  <Target ID>
17045

>  <Target Name>
Cytochrome P450 3A4

>  <Target Organism>
Homo sapiens

>  <Target Description>
Target is a single protein chain

>  <Sequence Accession>
P08684

>  <Reference>
J Med Chem 54 (17), 6028-6039 (2011)

>  <Pubmed ID>
21797275

>  <DOI>
10.1021/jm200469u

$$$$
1422683
Actelion Java MolfileCreator 1.0

 27 30  0  0  0  0  0  0  0  0999 V2000
    0.0000   -0.0000   -0.0000 O   0  0  0  0  0  0  0  0  0  0  0  0
    1.2967   -0.7376   -0.0000 C   0  0  0  0  0  0  0  0  0  0  0  0
    2.5814    0.0357   -0.0000 N   0  0  0  0  0  0  0  0  0  0  0  0
    1.2967   -2.2246   -0.0000 C   0  0  0  0  0  0  0  0  0  0  0  0
    2.5577    1.5465   -0.0000 C   0  0  0  0  0  0  0  0  0  0  0  0
   -0.0119   -2.9621   -0.0000 C   0  0  0  0  0  0  0  0  0  0  0  0
    2.5933   -2.9502   -0.0000 C   0  0  0  0  0  0  0  0  0  0  0  0
    3.8543    2.3078   -0.0000 C   0  0  0  0  0  0  0  0  0  0  0  0
    1.2491    2.2959   -0.0000 C   0  0  0  0  0  0  0  0  0  0  0  0
   -0.0238   -4.4610   -0.0000 C   0  0  0  0  0  0  0  0  0  0  0  0
   -1.3205   -2.2008   -0.0000 C   0  0  0  0  0  0  0  0  0  0  0  0
    2.5933   -4.4491   -0.0000 C   0  0  0  0  0  0  0  0  0  0  0  0
    3.8305    3.8186   -0.0000 C   0  0  0  0  0  0  0  0  0  0  0  0
    1.2253    3.8067   -0.0000 C   0  0  0  0  0  0  0  0  0  0  0  0
    1.2610   -5.1986   -0.0000 N   0  0  0  0  0  0  0  0  0  0  0  0
   -1.3324   -5.2105   -0.0000 C   0  0  0  0  0  0  0  0  0  0  0  0
   -2.6290   -2.9383   -0.0000 C   0  0  0  0  0  0  0  0  0  0  0  0
    3.8781   -5.1748   -0.0000 C   0  0  0  0  0  0  0  0  0  0  0  0
    2.5101    4.5681   -0.0000 C   0  0  0  0  0  0  0  0  0  0  0  0
   -2.6409   -4.4491   -0.0000 C   0  0  0  0  0  0  0  0  0  0  0  0
    3.8662   -6.6618   -0.0000 C   0  0  0  0  0  0  0  0  0  0  0  0
    5.1629   -4.4134   -0.0000 C   0  0  0  0  0  0  0  0  0  0  0  0
    2.4863    6.0789   -0.0000 O   0  0  0  0  0  0  0  0  0  0  0  0
    5.1510   -7.3993   -0.0000 C   0  0  0  0  0  0  0  0  0  0  0  0
    6.4596   -5.1391   -0.0000 C   0  0  0  0  0  0  0  0  0  0  0  0
    3.7711    6.8521   -0.0000 C   0  0  0  0  0  0  0  0  0  0  0  0
    6.4358   -6.6261   -0.0000 C   0  0  0  0  0  0  0  0  0  0  0  0
  1  2  2  0  0  0  0
  2  3  1  0  0  0  0
  2  4  1  0  0  0  0
  3  5  1  0  0  0  0
  4  6  1  0  0  0  0
  4  7  2  0  0  0  0
  5  8  2  0  0  0  0
  5  9  1  0  0  0  0
  6 10  1  0  0  0  0
  6 11  2  0  0  0  0
  7 12  1  0  0  0  0
  8 13  1  0  0  0  0
  9 14  2  0  0  0  0
 10 15  1  0  0  0  0
 10 16  2  0  0  0  0
 11 17  1  0  0  0  0
 12 18  1  0  0  0  0
 13 19  2  0  0  0  0
 16 20  1  0  0  0  0
 18 21  2  0  0  0  0
 18 22  1  0  0  0  0
 19 23  1  0  0  0  0
 21 24  1  0  0  0  0
 22 25  2  0  0  0  0
 23 26  1  0  0  0  0
 24 27  2  0  0  0  0
 12 15  2  0  0  0  0
 14 19  1  0  0  0  0
 17 20  2  0  0  0  0
 25 27  1  0  0  0  0
M  END
>  <MolRegNo>
1422683

>  <m>
=

>  <Value>
3100

>  <Unit>
nM

>  <Type>
Ki

>  <pValue>
5.51

>  <Ligand Efficiency>
0

>  <Binding Efficiency>
0

>  <Surface Efficiency>
0

>  <Assay Index>
681120

>  <Assay Category>


>  <Assay Organism>


>  <Target ID>
17045

>  <Target Name>
Cytochrome P450 3A4

>  <Target Organism>
Homo sapiens

>  <Target Description>
Target is a single protein chain

>  <Sequence Accession>
P08684

>  <Reference>
J Med Chem 55 (1), 280-290 (2012)

>  <Pubmed ID>
22087535

>  <DOI>
10.1021/jm201207h

$$$$
1422684
Actelion Java MolfileCreator 1.0

 28 31  0  0  0  0  0  0  0  0999 V2000
    0.0000   -0.0000   -0.0000 O   0  0  0  0  0  0  0  0  0  0  0  0
    1.2962   -0.7373   -0.0000 C   0  0  0  0  0  0  0  0  0  0  0  0
    2.5804    0.0357   -0.0000 N   0  0  0  0  0  0  0  0  0  0  0  0
    1.2962   -2.2237   -0.0000 C   0  0  0  0  0  0  0  0  0  0  0  0
    2.5566    1.5459   -0.0000 C   0  0  0  0  0  0  0  0  0  0  0  0
   -0.0119   -2.9610   -0.0000 C   0  0  0  0  0  0  0  0  0  0  0  0
    2.5923   -2.9491   -0.0000 C   0  0  0  0  0  0  0  0  0  0  0  0
    3.8528    2.3069   -0.0000 C   0  0  0  0  0  0  0  0  0  0  0  0
    1.2486    2.2950   -0.0000 C   0  0  0  0  0  0  0  0  0  0  0  0
   -0.0238   -4.4593   -0.0000 C   0  0  0  0  0  0  0  0  0  0  0  0
   -1.3199   -2.1999   -0.0000 C   0  0  0  0  0  0  0  0  0  0  0  0
    2.5923   -4.4474   -0.0000 C   0  0  0  0  0  0  0  0  0  0  0  0
    3.8290    3.8171   -0.0000 C   0  0  0  0  0  0  0  0  0  0  0  0
    1.2248    3.8052   -0.0000 C   0  0  0  0  0  0  0  0  0  0  0  0
    1.2605   -5.1965   -0.0000 N   0  0  0  0  0  0  0  0  0  0  0  0
   -1.3318   -5.2084   -0.0000 C   0  0  0  0  0  0  0  0  0  0  0  0
   -2.6280   -2.9372   -0.0000 C   0  0  0  0  0  0  0  0  0  0  0  0
    3.8766   -5.1727   -0.0000 C   0  0  0  0  0  0  0  0  0  0  0  0
    2.5091    4.5663   -0.0000 C   0  0  0  0  0  0  0  0  0  0  0  0
   -2.6399   -4.4474   -0.0000 C   0  0  0  0  0  0  0  0  0  0  0  0
    3.8647   -6.6592   -0.0000 C   0  0  0  0  0  0  0  0  0  0  0  0
    5.1609   -4.4117   -0.0000 C   0  0  0  0  0  0  0  0  0  0  0  0
    2.4853    6.0765   -0.0000 N   0  0  0  0  0  0  0  0  0  0  0  0
    5.1490   -7.3964   -0.0000 C   0  0  0  0  0  0  0  0  0  0  0  0
    6.4570   -5.1371   -0.0000 C   0  0  0  0  0  0  0  0  0  0  0  0
    3.7696    6.8494   -0.0000 C   0  0  0  0  0  0  0  0  0  0  0  0
    1.1654    6.8256   -0.0000 C   0  0  0  0  0  0  0  0  0  0  0  0
    6.4332   -6.6235   -0.0000 C   0  0  0  0  0  0  0  0  0  0  0  0
  1  2  2  0  0  0  0
  2  3  1  0  0  0  0
  2  4  1  0  0  0  0
  3  5  1  0  0  0  0
  4  6  1  0  0  0  0
  4  7  2  0  0  0  0
  5  8  2  0  0  0  0
  5  9  1  0  0  0  0
  6 10  1  0  0  0  0
  6 11  2  0  0  0  0
  7 12  1  0  0  0  0
  8 13  1  0  0  0  0
  9 14  2  0  0  0  0
 10 15  1  0  0  0  0
 10 16  2  0  0  0  0
 11 17  1  0  0  0  0
 12 18  1  0  0  0  0
 13 19  2  0  0  0  0
 16 20  1  0  0  0  0
 18 21  2  0  0  0  0
 18 22  1  0  0  0  0
 19 23  1  0  0  0  0
 21 24  1  0  0  0  0
 22 25  2  0  0  0  0
 23 26  1  0  0  0  0
 23 27  1  0  0  0  0
 24 28  2  0  0  0  0
 12 15  2  0  0  0  0
 14 19  1  0  0  0  0
 17 20  2  0  0  0  0
 25 28  1  0  0  0  0
M  END
>  <MolRegNo>
1422684

>  <m>
=

>  <Value>
14400

>  <Unit>
nM

>  <Type>
Ki

>  <pValue>
4.84

>  <Ligand Efficiency>
0

>  <Binding Efficiency>
0

>  <Surface Efficiency>
0

>  <Assay Index>
681120

>  <Assay Category>


>  <Assay Organism>


>  <Target ID>
17045

>  <Target Name>
Cytochrome P450 3A4

>  <Target Organism>
Homo sapiens

>  <Target Description>
Target is a single protein chain

>  <Sequence Accession>
P08684

>  <Reference>
J Med Chem 55 (1), 280-290 (2012)

>  <Pubmed ID>
22087535

>  <DOI>
10.1021/jm201207h

$$$$
1422685
Actelion Java MolfileCreator 1.0

 25 28  0  0  0  0  0  0  0  0999 V2000
    0.0000   -0.0000   -0.0000 O   0  0  0  0  0  0  0  0  0  0  0  0
    1.2970   -0.7377   -0.0000 C   0  0  0  0  0  0  0  0  0  0  0  0
    2.5821    0.0357   -0.0000 N   0  0  0  0  0  0  0  0  0  0  0  0
    1.2970   -2.2251   -0.0000 C   0  0  0  0  0  0  0  0  0  0  0  0
    2.5583    1.5469   -0.0000 C   0  0  0  0  0  0  0  0  0  0  0  0
   -0.0119   -2.9629   -0.0000 C   0  0  0  0  0  0  0  0  0  0  0  0
    2.5940   -2.9510   -0.0000 C   0  0  0  0  0  0  0  0  0  0  0  0
    3.8553    2.3084   -0.0000 C   0  0  0  0  0  0  0  0  0  0  0  0
    1.2494    2.2965   -0.0000 C   0  0  0  0  0  0  0  0  0  0  0  0
   -0.0238   -4.4621   -0.0000 C   0  0  0  0  0  0  0  0  0  0  0  0
   -1.3208   -2.2013   -0.0000 C   0  0  0  0  0  0  0  0  0  0  0  0
    2.5940   -4.4502   -0.0000 C   0  0  0  0  0  0  0  0  0  0  0  0
    3.8315    3.8196   -0.0000 C   0  0  0  0  0  0  0  0  0  0  0  0
    1.2256    3.8077   -0.0000 C   0  0  0  0  0  0  0  0  0  0  0  0
    1.2613   -5.1999   -0.0000 N   0  0  0  0  0  0  0  0  0  0  0  0
   -1.3327   -5.2118   -0.0000 C   0  0  0  0  0  0  0  0  0  0  0  0
   -2.6297   -2.9391   -0.0000 C   0  0  0  0  0  0  0  0  0  0  0  0
    3.8791   -5.1761   -0.0000 C   0  0  0  0  0  0  0  0  0  0  0  0
    2.5107    4.5692   -0.0000 C   0  0  0  0  0  0  0  0  0  0  0  0
   -2.6416   -4.4502   -0.0000 C   0  0  0  0  0  0  0  0  0  0  0  0
    3.8672   -6.6635   -0.0000 C   0  0  0  0  0  0  0  0  0  0  0  0
    5.1642   -4.4145   -0.0000 C   0  0  0  0  0  0  0  0  0  0  0  0
    5.1523   -7.4012   -0.0000 C   0  0  0  0  0  0  0  0  0  0  0  0
    6.4612   -5.1404   -0.0000 C   0  0  0  0  0  0  0  0  0  0  0  0
    6.4374   -6.6278   -0.0000 C   0  0  0  0  0  0  0  0  0  0  0  0
  1  2  2  0  0  0  0
  2  3  1  0  0  0  0
  2  4  1  0  0  0  0
  3  5  1  0  0  0  0
  4  6  1  0  0  0  0
  4  7  2  0  0  0  0
  5  8  2  0  0  0  0
  5  9  1  0  0  0  0
  6 10  1  0  0  0  0
  6 11  2  0  0  0  0
  7 12  1  0  0  0  0
  8 13  1  0  0  0  0
  9 14  2  0  0  0  0
 10 15  1  0  0  0  0
 10 16  2  0  0  0  0
 11 17  1  0  0  0  0
 12 18  1  0  0  0  0
 13 19  2  0  0  0  0
 16 20  1  0  0  0  0
 18 21  2  0  0  0  0
 18 22  1  0  0  0  0
 21 23  1  0  0  0  0
 22 24  2  0  0  0  0
 23 25  2  0  0  0  0
 12 15  2  0  0  0  0
 14 19  1  0  0  0  0
 17 20  2  0  0  0  0
 24 25  1  0  0  0  0
M  END
>  <MolRegNo>
1422685

>  <m>
=

>  <Value>
4100

>  <Unit>
nM

>  <Type>
Ki

>  <pValue>
5.39

>  <Ligand Efficiency>
0

>  <Binding Efficiency>
0

>  <Surface Efficiency>
0

>  <Assay Index>
681120

>  <Assay Category>


>  <Assay Organism>


>  <Target ID>
17045

>  <Target Name>
Cytochrome P450 3A4

>  <Target Organism>
Homo sapiens

>  <Target Description>
Target is a single protein chain

>  <Sequence Accession>
P08684

>  <Reference>
J Med Chem 55 (1), 280-290 (2012)

>  <Pubmed ID>
22087535

>  <DOI>
10.1021/jm201207h

$$$$
1422686
Actelion Java MolfileCreator 1.0

 26 29  0  0  0  0  0  0  0  0999 V2000
    0.0000   -0.0000   -0.0000 O   0  0  0  0  0  0  0  0  0  0  0  0
    1.2967   -0.7375   -0.0000 C   0  0  0  0  0  0  0  0  0  0  0  0
    2.5814    0.0357   -0.0000 N   0  0  0  0  0  0  0  0  0  0  0  0
    1.2967   -2.2245   -0.0000 C   0  0  0  0  0  0  0  0  0  0  0  0
    2.5576    1.5465   -0.0000 C   0  0  0  0  0  0  0  0  0  0  0  0
   -0.0119   -2.9621   -0.0000 C   0  0  0  0  0  0  0  0  0  0  0  0
    2.5933   -2.9502   -0.0000 C   0  0  0  0  0  0  0  0  0  0  0  0
    3.8543    2.3078   -0.0000 C   0  0  0  0  0  0  0  0  0  0  0  0
    1.2491    2.2959   -0.0000 C   0  0  0  0  0  0  0  0  0  0  0  0
   -0.0238   -4.4610   -0.0000 C   0  0  0  0  0  0  0  0  0  0  0  0
   -1.3204   -2.2007   -0.0000 C   0  0  0  0  0  0  0  0  0  0  0  0
    2.5933   -4.4491   -0.0000 C   0  0  0  0  0  0  0  0  0  0  0  0
    3.8305    3.8186   -0.0000 C   0  0  0  0  0  0  0  0  0  0  0  0
    1.2253    3.8067   -0.0000 C   0  0  0  0  0  0  0  0  0  0  0  0
    1.2610   -5.1985   -0.0000 N   0  0  0  0  0  0  0  0  0  0  0  0
   -1.3323   -5.2104   -0.0000 C   0  0  0  0  0  0  0  0  0  0  0  0
   -2.6290   -2.9383   -0.0000 C   0  0  0  0  0  0  0  0  0  0  0  0
    3.8781   -5.1747   -0.0000 C   0  0  0  0  0  0  0  0  0  0  0  0
    2.5100    4.5680   -0.0000 C   0  0  0  0  0  0  0  0  0  0  0  0
   -2.6409   -4.4491   -0.0000 C   0  0  0  0  0  0  0  0  0  0  0  0
    3.8662   -6.6617   -0.0000 C   0  0  0  0  0  0  0  0  0  0  0  0
    5.1628   -4.4134   -0.0000 C   0  0  0  0  0  0  0  0  0  0  0  0
    2.4862    6.0788   -0.0000 C   0  0  0  0  0  0  0  0  0  0  0  0
    5.1509   -7.3993   -0.0000 C   0  0  0  0  0  0  0  0  0  0  0  0
    6.4595   -5.1390   -0.0000 C   0  0  0  0  0  0  0  0  0  0  0  0
    6.4357   -6.6260   -0.0000 C   0  0  0  0  0  0  0  0  0  0  0  0
  1  2  2  0  0  0  0
  2  3  1  0  0  0  0
  2  4  1  0  0  0  0
  3  5  1  0  0  0  0
  4  6  1  0  0  0  0
  4  7  2  0  0  0  0
  5  8  2  0  0  0  0
  5  9  1  0  0  0  0
  6 10  1  0  0  0  0
  6 11  2  0  0  0  0
  7 12  1  0  0  0  0
  8 13  1  0  0  0  0
  9 14  2  0  0  0  0
 10 15  1  0  0  0  0
 10 16  2  0  0  0  0
 11 17  1  0  0  0  0
 12 18  1  0  0  0  0
 13 19  2  0  0  0  0
 16 20  1  0  0  0  0
 18 21  2  0  0  0  0
 18 22  1  0  0  0  0
 19 23  1  0  0  0  0
 21 24  1  0  0  0  0
 22 25  2  0  0  0  0
 24 26  2  0  0  0  0
 12 15  2  0  0  0  0
 14 19  1  0  0  0  0
 17 20  2  0  0  0  0
 25 26  1  0  0  0  0
M  END
>  <MolRegNo>
1422686

>  <m>
=

>  <Value>
3970

>  <Unit>
nM

>  <Type>
Ki

>  <pValue>
5.4

>  <Ligand Efficiency>
0

>  <Binding Efficiency>
0

>  <Surface Efficiency>
0

>  <Assay Index>
681120

>  <Assay Category>


>  <Assay Organism>


>  <Target ID>
17045

>  <Target Name>
Cytochrome P450 3A4

>  <Target Organism>
Homo sapiens

>  <Target Description>
Target is a single protein chain

>  <Sequence Accession>
P08684

>  <Reference>
J Med Chem 55 (1), 280-290 (2012)

>  <Pubmed ID>
22087535

>  <DOI>
10.1021/jm201207h

$$$$
1422687
Actelion Java MolfileCreator 1.0

 27 30  0  0  0  0  0  0  0  0999 V2000
    0.0000   -0.0000   -0.0000 O   0  0  0  0  0  0  0  0  0  0  0  0
    1.2967   -0.7376   -0.0000 C   0  0  0  0  0  0  0  0  0  0  0  0
    2.5814    0.0357   -0.0000 N   0  0  0  0  0  0  0  0  0  0  0  0
    1.2967   -2.2246   -0.0000 C   0  0  0  0  0  0  0  0  0  0  0  0
    2.5577    1.5465   -0.0000 C   0  0  0  0  0  0  0  0  0  0  0  0
   -0.0119   -2.9621   -0.0000 C   0  0  0  0  0  0  0  0  0  0  0  0
    2.5933   -2.9502   -0.0000 C   0  0  0  0  0  0  0  0  0  0  0  0
    3.8543    2.3078   -0.0000 C   0  0  0  0  0  0  0  0  0  0  0  0
    1.2491    2.2959   -0.0000 C   0  0  0  0  0  0  0  0  0  0  0  0
   -0.0238   -4.4610   -0.0000 C   0  0  0  0  0  0  0  0  0  0  0  0
   -1.3205   -2.2008   -0.0000 C   0  0  0  0  0  0  0  0  0  0  0  0
    2.5933   -4.4491   -0.0000 C   0  0  0  0  0  0  0  0  0  0  0  0
    3.8305    3.8186   -0.0000 C   0  0  0  0  0  0  0  0  0  0  0  0
    1.2253    3.8067   -0.0000 C   0  0  0  0  0  0  0  0  0  0  0  0
    1.2610   -5.1986   -0.0000 N   0  0  0  0  0  0  0  0  0  0  0  0
   -1.3324   -5.2105   -0.0000 C   0  0  0  0  0  0  0  0  0  0  0  0
   -2.6290   -2.9383   -0.0000 C   0  0  0  0  0  0  0  0  0  0  0  0
    3.8781   -5.1748   -0.0000 C   0  0  0  0  0  0  0  0  0  0  0  0
    2.5101    4.5681   -0.0000 C   0  0  0  0  0  0  0  0  0  0  0  0
   -2.6409   -4.4491   -0.0000 C   0  0  0  0  0  0  0  0  0  0  0  0
    3.8662   -6.6618   -0.0000 C   0  0  0  0  0  0  0  0  0  0  0  0
    5.1629   -4.4134   -0.0000 C   0  0  0  0  0  0  0  0  0  0  0  0
    2.4863    6.0789   -0.0000 O   0  0  0  0  0  0  0  0  0  0  0  0
    5.1510   -7.3993   -0.0000 C   0  0  0  0  0  0  0  0  0  0  0  0
    6.4596   -5.1391   -0.0000 C   0  0  0  0  0  0  0  0  0  0  0  0
    3.7711    6.8521   -0.0000 C   0  0  0  0  0  0  0  0  0  0  0  0
    6.4358   -6.6261   -0.0000 N   0  0  0  0  0  0  0  0  0  0  0  0
  1  2  2  0  0  0  0
  2  3  1  0  0  0  0
  2  4  1  0  0  0  0
  3  5  1  0  0  0  0
  4  6  1  0  0  0  0
  4  7  2  0  0  0  0
  5  8  2  0  0  0  0
  5  9  1  0  0  0  0
  6 10  1  0  0  0  0
  6 11  2  0  0  0  0
  7 12  1  0  0  0  0
  8 13  1  0  0  0  0
  9 14  2  0  0  0  0
 10 15  1  0  0  0  0
 10 16  2  0  0  0  0
 11 17  1  0  0  0  0
 12 18  1  0  0  0  0
 13 19  2  0  0  0  0
 16 20  1  0  0  0  0
 18 21  2  0  0  0  0
 18 22  1  0  0  0  0
 19 23  1  0  0  0  0
 21 24  1  0  0  0  0
 22 25  2  0  0  0  0
 23 26  1  0  0  0  0
 24 27  2  0  0  0  0
 12 15  2  0  0  0  0
 14 19  1  0  0  0  0
 17 20  2  0  0  0  0
 25 27  1  0  0  0  0
M  END
>  <MolRegNo>
1422687

>  <m>
=

>  <Value>
540

>  <Unit>
nM

>  <Type>
Ki

>  <pValue>
6.27

>  <Ligand Efficiency>
0

>  <Binding Efficiency>
0

>  <Surface Efficiency>
0

>  <Assay Index>
681120

>  <Assay Category>


>  <Assay Organism>


>  <Target ID>
17045

>  <Target Name>
Cytochrome P450 3A4

>  <Target Organism>
Homo sapiens

>  <Target Description>
Target is a single protein chain

>  <Sequence Accession>
P08684

>  <Reference>
J Med Chem 55 (1), 280-290 (2012)

>  <Pubmed ID>
22087535

>  <DOI>
10.1021/jm201207h

$$$$
1422688
Actelion Java MolfileCreator 1.0

 28 31  0  0  0  0  0  0  0  0999 V2000
    0.0000   -0.0000   -0.0000 O   0  0  0  0  0  0  0  0  0  0  0  0
    1.2962   -0.7373   -0.0000 C   0  0  0  0  0  0  0  0  0  0  0  0
    2.5804    0.0357   -0.0000 N   0  0  0  0  0  0  0  0  0  0  0  0
    1.2962   -2.2237   -0.0000 C   0  0  0  0  0  0  0  0  0  0  0  0
    2.5566    1.5459   -0.0000 C   0  0  0  0  0  0  0  0  0  0  0  0
   -0.0119   -2.9610   -0.0000 C   0  0  0  0  0  0  0  0  0  0  0  0
    2.5923   -2.9491   -0.0000 C   0  0  0  0  0  0  0  0  0  0  0  0
    3.8528    2.3069   -0.0000 C   0  0  0  0  0  0  0  0  0  0  0  0
    1.2486    2.2950   -0.0000 C   0  0  0  0  0  0  0  0  0  0  0  0
   -0.0238   -4.4593   -0.0000 C   0  0  0  0  0  0  0  0  0  0  0  0
   -1.3199   -2.1999   -0.0000 C   0  0  0  0  0  0  0  0  0  0  0  0
    2.5923   -4.4474   -0.0000 C   0  0  0  0  0  0  0  0  0  0  0  0
    3.8290    3.8171   -0.0000 C   0  0  0  0  0  0  0  0  0  0  0  0
    1.2248    3.8052   -0.0000 C   0  0  0  0  0  0  0  0  0  0  0  0
    1.2605   -5.1965   -0.0000 N   0  0  0  0  0  0  0  0  0  0  0  0
   -1.3318   -5.2084   -0.0000 C   0  0  0  0  0  0  0  0  0  0  0  0
   -2.6280   -2.9372   -0.0000 C   0  0  0  0  0  0  0  0  0  0  0  0
    3.8766   -5.1727   -0.0000 C   0  0  0  0  0  0  0  0  0  0  0  0
    2.5091    4.5663   -0.0000 C   0  0  0  0  0  0  0  0  0  0  0  0
   -2.6399   -4.4474   -0.0000 C   0  0  0  0  0  0  0  0  0  0  0  0
    3.8647   -6.6592   -0.0000 C   0  0  0  0  0  0  0  0  0  0  0  0
    5.1609   -4.4117   -0.0000 C   0  0  0  0  0  0  0  0  0  0  0  0
    2.4853    6.0765   -0.0000 N   0  0  0  0  0  0  0  0  0  0  0  0
    5.1490   -7.3964   -0.0000 C   0  0  0  0  0  0  0  0  0  0  0  0
    6.4570   -5.1371   -0.0000 C   0  0  0  0  0  0  0  0  0  0  0  0
    3.7696    6.8494   -0.0000 C   0  0  0  0  0  0  0  0  0  0  0  0
    1.1654    6.8256   -0.0000 C   0  0  0  0  0  0  0  0  0  0  0  0
    6.4332   -6.6235   -0.0000 N   0  0  0  0  0  0  0  0  0  0  0  0
  1  2  2  0  0  0  0
  2  3  1  0  0  0  0
  2  4  1  0  0  0  0
  3  5  1  0  0  0  0
  4  6  1  0  0  0  0
  4  7  2  0  0  0  0
  5  8  2  0  0  0  0
  5  9  1  0  0  0  0
  6 10  1  0  0  0  0
  6 11  2  0  0  0  0
  7 12  1  0  0  0  0
  8 13  1  0  0  0  0
  9 14  2  0  0  0  0
 10 15  1  0  0  0  0
 10 16  2  0  0  0  0
 11 17  1  0  0  0  0
 12 18  1  0  0  0  0
 13 19  2  0  0  0  0
 16 20  1  0  0  0  0
 18 21  2  0  0  0  0
 18 22  1  0  0  0  0
 19 23  1  0  0  0  0
 21 24  1  0  0  0  0
 22 25  2  0  0  0  0
 23 26  1  0  0  0  0
 23 27  1  0  0  0  0
 24 28  2  0  0  0  0
 12 15  2  0  0  0  0
 14 19  1  0  0  0  0
 17 20  2  0  0  0  0
 25 28  1  0  0  0  0
M  END
>  <MolRegNo>
1422688

>  <m>
=

>  <Value>
800

>  <Unit>
nM

>  <Type>
Ki

>  <pValue>
6.1

>  <Ligand Efficiency>
0

>  <Binding Efficiency>
0

>  <Surface Efficiency>
0

>  <Assay Index>
681120

>  <Assay Category>


>  <Assay Organism>


>  <Target ID>
17045

>  <Target Name>
Cytochrome P450 3A4

>  <Target Organism>
Homo sapiens

>  <Target Description>
Target is a single protein chain

>  <Sequence Accession>
P08684

>  <Reference>
J Med Chem 55 (1), 280-290 (2012)

>  <Pubmed ID>
22087535

>  <DOI>
10.1021/jm201207h

$$$$
512628
Actelion Java MolfileCreator 1.0

 25 28  0  0  0  0  0  0  0  0999 V2000
    0.0000   -0.0000   -0.0000 O   0  0  0  0  0  0  0  0  0  0  0  0
    1.2957   -0.7370   -0.0000 C   0  0  0  0  0  0  0  0  0  0  0  0
    2.5913    0.0357   -0.0000 N   0  0  0  0  0  0  0  0  0  0  0  0
    1.2838   -2.2347   -0.0000 C   0  0  0  0  0  0  0  0  0  0  0  0
    3.8870   -0.7013   -0.0000 C   0  0  0  0  0  0  0  0  0  0  0  0
   -0.0238   -2.9836   -0.0000 C   0  0  0  0  0  0  0  0  0  0  0  0
    2.5795   -2.9836   -0.0000 C   0  0  0  0  0  0  0  0  0  0  0  0
    3.8751   -2.1991   -0.0000 C   0  0  0  0  0  0  0  0  0  0  0  0
    5.1708    0.0713   -0.0000 C   0  0  0  0  0  0  0  0  0  0  0  0
   -0.0357   -4.4814   -0.0000 C   0  0  0  0  0  0  0  0  0  0  0  0
   -1.3313   -2.2110   -0.0000 C   0  0  0  0  0  0  0  0  0  0  0  0
    2.5676   -4.4814   -0.0000 C   0  0  0  0  0  0  0  0  0  0  0  0
    5.1708   -2.9361   -0.0000 C   0  0  0  0  0  0  0  0  0  0  0  0
    6.4665   -0.6657   -0.0000 C   0  0  0  0  0  0  0  0  0  0  0  0
    1.2481   -5.2184   -0.0000 N   0  0  0  0  0  0  0  0  0  0  0  0
   -1.3551   -5.2184   -0.0000 C   0  0  0  0  0  0  0  0  0  0  0  0
   -2.6508   -2.9598   -0.0000 C   0  0  0  0  0  0  0  0  0  0  0  0
    3.8514   -5.2302   -0.0000 C   0  0  0  0  0  0  0  0  0  0  0  0
    6.4665   -2.1634   -0.0000 C   0  0  0  0  0  0  0  0  0  0  0  0
   -2.6746   -4.4576   -0.0000 C   0  0  0  0  0  0  0  0  0  0  0  0
    3.8395   -6.7280   -0.0000 C   0  0  0  0  0  0  0  0  0  0  0  0
    5.1470   -4.4576   -0.0000 C   0  0  0  0  0  0  0  0  0  0  0  0
    5.1233   -7.4650   -0.0000 C   0  0  0  0  0  0  0  0  0  0  0  0
    6.4427   -5.2065   -0.0000 C   0  0  0  0  0  0  0  0  0  0  0  0
    6.4189   -6.7042   -0.0000 N   0  0  0  0  0  0  0  0  0  0  0  0
  1  2  2  0  0  0  0
  2  3  1  0  0  0  0
  2  4  1  0  0  0  0
  3  5  1  0  0  0  0
  4  6  1  0  0  0  0
  4  7  2  0  0  0  0
  5  8  2  0  0  0  0
  5  9  1  0  0  0  0
  6 10  1  0  0  0  0
  6 11  2  0  0  0  0
  7 12  1  0  0  0  0
  8 13  1  0  0  0  0
  9 14  2  0  0  0  0
 10 15  1  0  0  0  0
 10 16  2  0  0  0  0
 11 17  1  0  0  0  0
 12 18  1  0  0  0  0
 13 19  2  0  0  0  0
 16 20  1  0  0  0  0
 18 21  2  0  0  0  0
 18 22  1  0  0  0  0
 21 23  1  0  0  0  0
 22 24  2  0  0  0  0
 23 25  2  0  0  0  0
 12 15  2  0  0  0  0
 14 19  1  0  0  0  0
 17 20  2  0  0  0  0
 24 25  1  0  0  0  0
M  END
>  <MolRegNo>
512628

>  <m>
=

>  <Value>
700

>  <Unit>
nM

>  <Type>
Ki

>  <pValue>
6.16

>  <Ligand Efficiency>
0

>  <Binding Efficiency>
0

>  <Surface Efficiency>
0

>  <Assay Index>
681120

>  <Assay Category>


>  <Assay Organism>


>  <Target ID>
17045

>  <Target Name>
Cytochrome P450 3A4

>  <Target Organism>
Homo sapiens

>  <Target Description>
Target is a single protein chain

>  <Sequence Accession>
P08684

>  <Reference>
J Med Chem 55 (1), 280-290 (2012)

>  <Pubmed ID>
22087535

>  <DOI>
10.1021/jm201207h

$$$$
1422689
Actelion Java MolfileCreator 1.0

 26 29  0  0  0  0  0  0  0  0999 V2000
    0.0000   -0.0000   -0.0000 O   0  0  0  0  0  0  0  0  0  0  0  0
    1.2967   -0.7375   -0.0000 C   0  0  0  0  0  0  0  0  0  0  0  0
    2.5814    0.0357   -0.0000 N   0  0  0  0  0  0  0  0  0  0  0  0
    1.2967   -2.2245   -0.0000 C   0  0  0  0  0  0  0  0  0  0  0  0
    2.5576    1.5465   -0.0000 C   0  0  0  0  0  0  0  0  0  0  0  0
   -0.0119   -2.9621   -0.0000 C   0  0  0  0  0  0  0  0  0  0  0  0
    2.5933   -2.9502   -0.0000 C   0  0  0  0  0  0  0  0  0  0  0  0
    3.8543    2.3078   -0.0000 C   0  0  0  0  0  0  0  0  0  0  0  0
    1.2491    2.2959   -0.0000 C   0  0  0  0  0  0  0  0  0  0  0  0
   -0.0238   -4.4610   -0.0000 C   0  0  0  0  0  0  0  0  0  0  0  0
   -1.3204   -2.2007   -0.0000 C   0  0  0  0  0  0  0  0  0  0  0  0
    2.5933   -4.4491   -0.0000 C   0  0  0  0  0  0  0  0  0  0  0  0
    3.8305    3.8186   -0.0000 C   0  0  0  0  0  0  0  0  0  0  0  0
    1.2253    3.8067   -0.0000 C   0  0  0  0  0  0  0  0  0  0  0  0
    1.2610   -5.1985   -0.0000 N   0  0  0  0  0  0  0  0  0  0  0  0
   -1.3323   -5.2104   -0.0000 C   0  0  0  0  0  0  0  0  0  0  0  0
   -2.6290   -2.9383   -0.0000 C   0  0  0  0  0  0  0  0  0  0  0  0
    3.8781   -5.1747   -0.0000 C   0  0  0  0  0  0  0  0  0  0  0  0
    2.5100    4.5680   -0.0000 C   0  0  0  0  0  0  0  0  0  0  0  0
   -2.6409   -4.4491   -0.0000 C   0  0  0  0  0  0  0  0  0  0  0  0
    3.8662   -6.6617   -0.0000 C   0  0  0  0  0  0  0  0  0  0  0  0
    5.1628   -4.4134   -0.0000 C   0  0  0  0  0  0  0  0  0  0  0  0
    2.4862    6.0788   -0.0000 C   0  0  0  0  0  0  0  0  0  0  0  0
    5.1509   -7.3993   -0.0000 C   0  0  0  0  0  0  0  0  0  0  0  0
    6.4595   -5.1390   -0.0000 C   0  0  0  0  0  0  0  0  0  0  0  0
    6.4357   -6.6260   -0.0000 N   0  0  0  0  0  0  0  0  0  0  0  0
  1  2  2  0  0  0  0
  2  3  1  0  0  0  0
  2  4  1  0  0  0  0
  3  5  1  0  0  0  0
  4  6  1  0  0  0  0
  4  7  2  0  0  0  0
  5  8  2  0  0  0  0
  5  9  1  0  0  0  0
  6 10  1  0  0  0  0
  6 11  2  0  0  0  0
  7 12  1  0  0  0  0
  8 13  1  0  0  0  0
  9 14  2  0  0  0  0
 10 15  1  0  0  0  0
 10 16  2  0  0  0  0
 11 17  1  0  0  0  0
 12 18  1  0  0  0  0
 13 19  2  0  0  0  0
 16 20  1  0  0  0  0
 18 21  2  0  0  0  0
 18 22  1  0  0  0  0
 19 23  1  0  0  0  0
 21 24  1  0  0  0  0
 22 25  2  0  0  0  0
 24 26  2  0  0  0  0
 12 15  2  0  0  0  0
 14 19  1  0  0  0  0
 17 20  2  0  0  0  0
 25 26  1  0  0  0  0
M  END
>  <MolRegNo>
1422689

>  <m>
=

>  <Value>
540

>  <Unit>
nM

>  <Type>
Ki

>  <pValue>
6.27

>  <Ligand Efficiency>
0

>  <Binding Efficiency>
0

>  <Surface Efficiency>
0

>  <Assay Index>
681120

>  <Assay Category>


>  <Assay Organism>


>  <Target ID>
17045

>  <Target Name>
Cytochrome P450 3A4

>  <Target Organism>
Homo sapiens

>  <Target Description>
Target is a single protein chain

>  <Sequence Accession>
P08684

>  <Reference>
J Med Chem 55 (1), 280-290 (2012)

>  <Pubmed ID>
22087535

>  <DOI>
10.1021/jm201207h

$$$$
1422690
Actelion Java MolfileCreator 1.0

 27 30  0  0  0  0  0  0  0  0999 V2000
    0.0000   -0.0000   -0.0000 O   0  0  0  0  0  0  0  0  0  0  0  0
    1.2959   -0.7371   -0.0000 C   0  0  0  0  0  0  0  0  0  0  0  0
    2.5799    0.0357   -0.0000 N   0  0  0  0  0  0  0  0  0  0  0  0
    1.2959   -2.2233   -0.0000 C   0  0  0  0  0  0  0  0  0  0  0  0
    2.5562    1.5456   -0.0000 C   0  0  0  0  0  0  0  0  0  0  0  0
   -0.0119   -2.9604   -0.0000 C   0  0  0  0  0  0  0  0  0  0  0  0
    2.5918   -2.9485   -0.0000 C   0  0  0  0  0  0  0  0  0  0  0  0
    3.8521    2.3065   -0.0000 C   0  0  0  0  0  0  0  0  0  0  0  0
    1.2484    2.2946   -0.0000 C   0  0  0  0  0  0  0  0  0  0  0  0
   -0.0238   -4.4584   -0.0000 C   0  0  0  0  0  0  0  0  0  0  0  0
   -1.3197   -2.1995   -0.0000 C   0  0  0  0  0  0  0  0  0  0  0  0
    2.5918   -4.4465   -0.0000 C   0  0  0  0  0  0  0  0  0  0  0  0
    3.8283    3.8164   -0.0000 C   0  0  0  0  0  0  0  0  0  0  0  0
    1.2246    3.8045   -0.0000 C   0  0  0  0  0  0  0  0  0  0  0  0
    1.2603   -5.1956   -0.0000 N   0  0  0  0  0  0  0  0  0  0  0  0
   -1.3316   -5.2075   -0.0000 C   0  0  0  0  0  0  0  0  0  0  0  0
   -2.6275   -2.9366   -0.0000 C   0  0  0  0  0  0  0  0  0  0  0  0
    3.8759   -5.1718   -0.0000 C   0  0  0  0  0  0  0  0  0  0  0  0
    2.5086    4.5654   -0.0000 C   0  0  0  0  0  0  0  0  0  0  0  0
   -2.6394   -4.4465   -0.0000 C   0  0  0  0  0  0  0  0  0  0  0  0
    5.1599   -4.4109   -0.0000 N   0  0  0  0  0  0  0  0  0  0  0  0
    3.8640   -6.6579   -0.0000 C   0  0  0  0  0  0  0  0  0  0  0  0
    2.4848    6.0754   -0.0000 O   0  0  0  0  0  0  0  0  0  0  0  0
    6.4558   -5.1361   -0.0000 C   0  0  0  0  0  0  0  0  0  0  0  0
    5.1480   -7.3951   -0.0000 C   0  0  0  0  0  0  0  0  0  0  0  0
    3.7689    6.8482   -0.0000 C   0  0  0  0  0  0  0  0  0  0  0  0
    6.4558   -6.6341   -0.0000 C   0  0  0  0  0  0  0  0  0  0  0  0
  1  2  2  0  0  0  0
  2  3  1  0  0  0  0
  2  4  1  0  0  0  0
  3  5  1  0  0  0  0
  4  6  1  0  0  0  0
  4  7  2  0  0  0  0
  5  8  2  0  0  0  0
  5  9  1  0  0  0  0
  6 10  1  0  0  0  0
  6 11  2  0  0  0  0
  7 12  1  0  0  0  0
  8 13  1  0  0  0  0
  9 14  2  0  0  0  0
 10 15  1  0  0  0  0
 10 16  2  0  0  0  0
 11 17  1  0  0  0  0
 12 18  1  0  0  0  0
 13 19  2  0  0  0  0
 16 20  1  0  0  0  0
 18 21  2  0  0  0  0
 18 22  1  0  0  0  0
 19 23  1  0  0  0  0
 21 24  1  0  0  0  0
 22 25  2  0  0  0  0
 23 26  1  0  0  0  0
 24 27  2  0  0  0  0
 12 15  2  0  0  0  0
 14 19  1  0  0  0  0
 17 20  2  0  0  0  0
 25 27  1  0  0  0  0
M  END
>  <MolRegNo>
1422690

>  <m>
=

>  <Value>
11900

>  <Unit>
nM

>  <Type>
Ki

>  <pValue>
4.92

>  <Ligand Efficiency>
0

>  <Binding Efficiency>
0

>  <Surface Efficiency>
0

>  <Assay Index>
681120

>  <Assay Category>


>  <Assay Organism>


>  <Target ID>
17045

>  <Target Name>
Cytochrome P450 3A4

>  <Target Organism>
Homo sapiens

>  <Target Description>
Target is a single protein chain

>  <Sequence Accession>
P08684

>  <Reference>
J Med Chem 55 (1), 280-290 (2012)

>  <Pubmed ID>
22087535

>  <DOI>
10.1021/jm201207h

$$$$
1422691
Actelion Java MolfileCreator 1.0

 28 31  0  0  0  0  0  0  0  0999 V2000
    0.0000   -0.0000   -0.0000 O   0  0  0  0  0  0  0  0  0  0  0  0
    1.2954   -0.7369   -0.0000 C   0  0  0  0  0  0  0  0  0  0  0  0
    2.5790    0.0357   -0.0000 N   0  0  0  0  0  0  0  0  0  0  0  0
    1.2954   -2.2224   -0.0000 C   0  0  0  0  0  0  0  0  0  0  0  0
    2.5552    1.5450   -0.0000 C   0  0  0  0  0  0  0  0  0  0  0  0
   -0.0119   -2.9593   -0.0000 C   0  0  0  0  0  0  0  0  0  0  0  0
    2.5909   -2.9474   -0.0000 C   0  0  0  0  0  0  0  0  0  0  0  0
    3.8506    2.3056   -0.0000 C   0  0  0  0  0  0  0  0  0  0  0  0
    1.2479    2.2937   -0.0000 C   0  0  0  0  0  0  0  0  0  0  0  0
   -0.0238   -4.4568   -0.0000 C   0  0  0  0  0  0  0  0  0  0  0  0
   -1.3192   -2.1987   -0.0000 C   0  0  0  0  0  0  0  0  0  0  0  0
    2.5909   -4.4449   -0.0000 C   0  0  0  0  0  0  0  0  0  0  0  0
    3.8269    3.8150   -0.0000 C   0  0  0  0  0  0  0  0  0  0  0  0
    1.2241    3.8031   -0.0000 C   0  0  0  0  0  0  0  0  0  0  0  0
    1.2598   -5.1936   -0.0000 N   0  0  0  0  0  0  0  0  0  0  0  0
   -1.3311   -5.2055   -0.0000 C   0  0  0  0  0  0  0  0  0  0  0  0
   -2.6265   -2.9355   -0.0000 C   0  0  0  0  0  0  0  0  0  0  0  0
    3.8744   -5.1698   -0.0000 C   0  0  0  0  0  0  0  0  0  0  0  0
    2.5077    4.5637   -0.0000 C   0  0  0  0  0  0  0  0  0  0  0  0
   -2.6384   -4.4449   -0.0000 C   0  0  0  0  0  0  0  0  0  0  0  0
    5.1580   -4.4092   -0.0000 N   0  0  0  0  0  0  0  0  0  0  0  0
    3.8625   -6.6554   -0.0000 C   0  0  0  0  0  0  0  0  0  0  0  0
    2.4839    6.0731   -0.0000 N   0  0  0  0  0  0  0  0  0  0  0  0
    6.4534   -5.1342   -0.0000 C   0  0  0  0  0  0  0  0  0  0  0  0
    5.1461   -7.3923   -0.0000 C   0  0  0  0  0  0  0  0  0  0  0  0
    3.7674    6.8456   -0.0000 C   0  0  0  0  0  0  0  0  0  0  0  0
    1.1647    6.8218   -0.0000 C   0  0  0  0  0  0  0  0  0  0  0  0
    6.4534   -6.6317   -0.0000 C   0  0  0  0  0  0  0  0  0  0  0  0
  1  2  2  0  0  0  0
  2  3  1  0  0  0  0
  2  4  1  0  0  0  0
  3  5  1  0  0  0  0
  4  6  1  0  0  0  0
  4  7  2  0  0  0  0
  5  8  2  0  0  0  0
  5  9  1  0  0  0  0
  6 10  1  0  0  0  0
  6 11  2  0  0  0  0
  7 12  1  0  0  0  0
  8 13  1  0  0  0  0
  9 14  2  0  0  0  0
 10 15  1  0  0  0  0
 10 16  2  0  0  0  0
 11 17  1  0  0  0  0
 12 18  1  0  0  0  0
 13 19  2  0  0  0  0
 16 20  1  0  0  0  0
 18 21  2  0  0  0  0
 18 22  1  0  0  0  0
 19 23  1  0  0  0  0
 21 24  1  0  0  0  0
 22 25  2  0  0  0  0
 23 26  1  0  0  0  0
 23 27  1  0  0  0  0
 24 28  2  0  0  0  0
 12 15  2  0  0  0  0
 14 19  1  0  0  0  0
 17 20  2  0  0  0  0
 25 28  1  0  0  0  0
M  END
>  <MolRegNo>
1422691

>  <m>
=

>  <Value>
32900

>  <Unit>
nM

>  <Type>
Ki

>  <pValue>
4.48

>  <Ligand Efficiency>
0

>  <Binding Efficiency>
0

>  <Surface Efficiency>
0

>  <Assay Index>
681120

>  <Assay Category>


>  <Assay Organism>


>  <Target ID>
17045

>  <Target Name>
Cytochrome P450 3A4

>  <Target Organism>
Homo sapiens

>  <Target Description>
Target is a single protein chain

>  <Sequence Accession>
P08684

>  <Reference>
J Med Chem 55 (1), 280-290 (2012)

>  <Pubmed ID>
22087535

>  <DOI>
10.1021/jm201207h

$$$$
512630
Actelion Java MolfileCreator 1.0

 25 28  0  0  0  0  0  0  0  0999 V2000
    0.0000   -0.0000   -0.0000 O   0  0  0  0  0  0  0  0  0  0  0  0
    1.2963   -0.7374   -0.0000 C   0  0  0  0  0  0  0  0  0  0  0  0
    2.5926    0.0357   -0.0000 N   0  0  0  0  0  0  0  0  0  0  0  0
    1.2844   -2.2358   -0.0000 C   0  0  0  0  0  0  0  0  0  0  0  0
    3.8889   -0.7017   -0.0000 C   0  0  0  0  0  0  0  0  0  0  0  0
   -0.0238   -2.9851   -0.0000 C   0  0  0  0  0  0  0  0  0  0  0  0
    2.5807   -2.9851   -0.0000 C   0  0  0  0  0  0  0  0  0  0  0  0
    3.8770   -2.2002   -0.0000 C   0  0  0  0  0  0  0  0  0  0  0  0
    5.1734    0.0714   -0.0000 C   0  0  0  0  0  0  0  0  0  0  0  0
   -0.0357   -4.4836   -0.0000 C   0  0  0  0  0  0  0  0  0  0  0  0
   -1.3320   -2.2121   -0.0000 C   0  0  0  0  0  0  0  0  0  0  0  0
    2.5688   -4.4836   -0.0000 C   0  0  0  0  0  0  0  0  0  0  0  0
    5.1734   -2.9375   -0.0000 C   0  0  0  0  0  0  0  0  0  0  0  0
    6.4697   -0.6660   -0.0000 C   0  0  0  0  0  0  0  0  0  0  0  0
    1.2487   -5.2209   -0.0000 N   0  0  0  0  0  0  0  0  0  0  0  0
   -1.3558   -5.2209   -0.0000 C   0  0  0  0  0  0  0  0  0  0  0  0
   -2.6402   -2.9613   -0.0000 C   0  0  0  0  0  0  0  0  0  0  0  0
    3.8533   -5.2328   -0.0000 C   0  0  0  0  0  0  0  0  0  0  0  0
    6.4697   -2.1645   -0.0000 C   0  0  0  0  0  0  0  0  0  0  0  0
   -2.6640   -4.4598   -0.0000 C   0  0  0  0  0  0  0  0  0  0  0  0
    3.8414   -6.7313   -0.0000 N   0  0  0  0  0  0  0  0  0  0  0  0
    5.1496   -4.4598   -0.0000 C   0  0  0  0  0  0  0  0  0  0  0  0
    5.1258   -7.4687   -0.0000 C   0  0  0  0  0  0  0  0  0  0  0  0
    6.4459   -5.2090   -0.0000 C   0  0  0  0  0  0  0  0  0  0  0  0
    6.4221   -6.7075   -0.0000 C   0  0  0  0  0  0  0  0  0  0  0  0
  1  2  2  0  0  0  0
  2  3  1  0  0  0  0
  2  4  1  0  0  0  0
  3  5  1  0  0  0  0
  4  6  1  0  0  0  0
  4  7  2  0  0  0  0
  5  8  2  0  0  0  0
  5  9  1  0  0  0  0
  6 10  1  0  0  0  0
  6 11  2  0  0  0  0
  7 12  1  0  0  0  0
  8 13  1  0  0  0  0
  9 14  2  0  0  0  0
 10 15  1  0  0  0  0
 10 16  2  0  0  0  0
 11 17  1  0  0  0  0
 12 18  1  0  0  0  0
 13 19  2  0  0  0  0
 16 20  1  0  0  0  0
 18 21  2  0  0  0  0
 18 22  1  0  0  0  0
 21 23  1  0  0  0  0
 22 24  2  0  0  0  0
 23 25  2  0  0  0  0
 12 15  2  0  0  0  0
 14 19  1  0  0  0  0
 17 20  2  0  0  0  0
 24 25  1  0  0  0  0
M  END
>  <MolRegNo>
512630

>  <m>
=

>  <Value>
14500

>  <Unit>
nM

>  <Type>
Ki

>  <pValue>
4.84

>  <Ligand Efficiency>
0

>  <Binding Efficiency>
0

>  <Surface Efficiency>
0

>  <Assay Index>
681120

>  <Assay Category>


>  <Assay Organism>


>  <Target ID>
17045

>  <Target Name>
Cytochrome P450 3A4

>  <Target Organism>
Homo sapiens

>  <Target Description>
Target is a single protein chain

>  <Sequence Accession>
P08684

>  <Reference>
J Med Chem 55 (1), 280-290 (2012)

>  <Pubmed ID>
22087535

>  <DOI>
10.1021/jm201207h

$$$$
1422692
Actelion Java MolfileCreator 1.0

 26 29  0  0  0  0  0  0  0  0999 V2000
    0.0000   -0.0000   -0.0000 O   0  0  0  0  0  0  0  0  0  0  0  0
    1.2959   -0.7371   -0.0000 C   0  0  0  0  0  0  0  0  0  0  0  0
    2.5799    0.0357   -0.0000 N   0  0  0  0  0  0  0  0  0  0  0  0
    1.2959   -2.2232   -0.0000 C   0  0  0  0  0  0  0  0  0  0  0  0
    2.5561    1.5455   -0.0000 C   0  0  0  0  0  0  0  0  0  0  0  0
   -0.0119   -2.9603   -0.0000 C   0  0  0  0  0  0  0  0  0  0  0  0
    2.5918   -2.9484   -0.0000 C   0  0  0  0  0  0  0  0  0  0  0  0
    3.8520    2.3064   -0.0000 C   0  0  0  0  0  0  0  0  0  0  0  0
    1.2483    2.2945   -0.0000 C   0  0  0  0  0  0  0  0  0  0  0  0
   -0.0238   -4.4583   -0.0000 C   0  0  0  0  0  0  0  0  0  0  0  0
   -1.3197   -2.1994   -0.0000 C   0  0  0  0  0  0  0  0  0  0  0  0
    2.5918   -4.4464   -0.0000 C   0  0  0  0  0  0  0  0  0  0  0  0
    3.8282    3.8163   -0.0000 C   0  0  0  0  0  0  0  0  0  0  0  0
    1.2245    3.8044   -0.0000 C   0  0  0  0  0  0  0  0  0  0  0  0
    1.2602   -5.1954   -0.0000 N   0  0  0  0  0  0  0  0  0  0  0  0
   -1.3315   -5.2073   -0.0000 C   0  0  0  0  0  0  0  0  0  0  0  0
   -2.6274   -2.9365   -0.0000 C   0  0  0  0  0  0  0  0  0  0  0  0
    3.8757   -5.1716   -0.0000 C   0  0  0  0  0  0  0  0  0  0  0  0
    2.5085    4.5653   -0.0000 C   0  0  0  0  0  0  0  0  0  0  0  0
   -2.6393   -4.4464   -0.0000 C   0  0  0  0  0  0  0  0  0  0  0  0
    5.1597   -4.4107   -0.0000 N   0  0  0  0  0  0  0  0  0  0  0  0
    3.8639   -6.6577   -0.0000 C   0  0  0  0  0  0  0  0  0  0  0  0
    2.4848    6.0752   -0.0000 C   0  0  0  0  0  0  0  0  0  0  0  0
    6.4556   -5.1360   -0.0000 C   0  0  0  0  0  0  0  0  0  0  0  0
    5.1478   -7.3948   -0.0000 C   0  0  0  0  0  0  0  0  0  0  0  0
    6.4556   -6.6339   -0.0000 C   0  0  0  0  0  0  0  0  0  0  0  0
  1  2  2  0  0  0  0
  2  3  1  0  0  0  0
  2  4  1  0  0  0  0
  3  5  1  0  0  0  0
  4  6  1  0  0  0  0
  4  7  2  0  0  0  0
  5  8  2  0  0  0  0
  5  9  1  0  0  0  0
  6 10  1  0  0  0  0
  6 11  2  0  0  0  0
  7 12  1  0  0  0  0
  8 13  1  0  0  0  0
  9 14  2  0  0  0  0
 10 15  1  0  0  0  0
 10 16  2  0  0  0  0
 11 17  1  0  0  0  0
 12 18  1  0  0  0  0
 13 19  2  0  0  0  0
 16 20  1  0  0  0  0
 18 21  2  0  0  0  0
 18 22  1  0  0  0  0
 19 23  1  0  0  0  0
 21 24  1  0  0  0  0
 22 25  2  0  0  0  0
 24 26  2  0  0  0  0
 12 15  2  0  0  0  0
 14 19  1  0  0  0  0
 17 20  2  0  0  0  0
 25 26  1  0  0  0  0
M  END
>  <MolRegNo>
1422692

>  <m>
=

>  <Value>
3900

>  <Unit>
nM

>  <Type>
Ki

>  <pValue>
5.41

>  <Ligand Efficiency>
0

>  <Binding Efficiency>
0

>  <Surface Efficiency>
0

>  <Assay Index>
681120

>  <Assay Category>


>  <Assay Organism>


>  <Target ID>
17045

>  <Target Name>
Cytochrome P450 3A4

>  <Target Organism>
Homo sapiens

>  <Target Description>
Target is a single protein chain

>  <Sequence Accession>
P08684

>  <Reference>
J Med Chem 55 (1), 280-290 (2012)

>  <Pubmed ID>
22087535

>  <DOI>
10.1021/jm201207h

$$$$
1422693
Actelion Java MolfileCreator 1.0

 27 30  0  0  0  0  0  0  0  0999 V2000
    0.0000   -0.0000   -0.0000 O   0  0  0  0  0  0  0  0  0  0  0  0
    1.2959   -0.7371   -0.0000 C   0  0  0  0  0  0  0  0  0  0  0  0
    2.5799    0.0357   -0.0000 N   0  0  0  0  0  0  0  0  0  0  0  0
    1.2959   -2.2233   -0.0000 C   0  0  0  0  0  0  0  0  0  0  0  0
    2.5562    1.5456   -0.0000 C   0  0  0  0  0  0  0  0  0  0  0  0
   -0.0119   -2.9604   -0.0000 C   0  0  0  0  0  0  0  0  0  0  0  0
    2.5918   -2.9485   -0.0000 C   0  0  0  0  0  0  0  0  0  0  0  0
    3.8521    2.3065   -0.0000 C   0  0  0  0  0  0  0  0  0  0  0  0
    1.2484    2.2946   -0.0000 C   0  0  0  0  0  0  0  0  0  0  0  0
   -0.0238   -4.4584   -0.0000 C   0  0  0  0  0  0  0  0  0  0  0  0
   -1.3197   -2.1995   -0.0000 C   0  0  0  0  0  0  0  0  0  0  0  0
    2.5918   -4.4465   -0.0000 C   0  0  0  0  0  0  0  0  0  0  0  0
    3.8283    3.8164   -0.0000 C   0  0  0  0  0  0  0  0  0  0  0  0
    1.2246    3.8045   -0.0000 C   0  0  0  0  0  0  0  0  0  0  0  0
    1.2603   -5.1956   -0.0000 N   0  0  0  0  0  0  0  0  0  0  0  0
   -1.3316   -5.2075   -0.0000 C   0  0  0  0  0  0  0  0  0  0  0  0
   -2.6275   -2.9366   -0.0000 C   0  0  0  0  0  0  0  0  0  0  0  0
    3.8759   -5.1718   -0.0000 C   0  0  0  0  0  0  0  0  0  0  0  0
    2.5086    4.5654   -0.0000 C   0  0  0  0  0  0  0  0  0  0  0  0
   -2.6394   -4.4465   -0.0000 C   0  0  0  0  0  0  0  0  0  0  0  0
    5.1599   -4.4109   -0.0000 N   0  0  0  0  0  0  0  0  0  0  0  0
    3.8640   -6.6579   -0.0000 C   0  0  0  0  0  0  0  0  0  0  0  0
    2.4848    6.0754   -0.0000 O   0  0  0  0  0  0  0  0  0  0  0  0
    6.4558   -5.1361   -0.0000 C   0  0  0  0  0  0  0  0  0  0  0  0
    5.1480   -7.3951   -0.0000 N   0  0  0  0  0  0  0  0  0  0  0  0
    3.7689    6.8482   -0.0000 C   0  0  0  0  0  0  0  0  0  0  0  0
    6.4558   -6.6341   -0.0000 C   0  0  0  0  0  0  0  0  0  0  0  0
  1  2  2  0  0  0  0
  2  3  1  0  0  0  0
  2  4  1  0  0  0  0
  3  5  1  0  0  0  0
  4  6  1  0  0  0  0
  4  7  2  0  0  0  0
  5  8  2  0  0  0  0
  5  9  1  0  0  0  0
  6 10  1  0  0  0  0
  6 11  2  0  0  0  0
  7 12  1  0  0  0  0
  8 13  1  0  0  0  0
  9 14  2  0  0  0  0
 10 15  1  0  0  0  0
 10 16  2  0  0  0  0
 11 17  1  0  0  0  0
 12 18  1  0  0  0  0
 13 19  2  0  0  0  0
 16 20  1  0  0  0  0
 18 21  2  0  0  0  0
 18 22  1  0  0  0  0
 19 23  1  0  0  0  0
 21 24  1  0  0  0  0
 22 25  2  0  0  0  0
 23 26  1  0  0  0  0
 24 27  2  0  0  0  0
 12 15  2  0  0  0  0
 14 19  1  0  0  0  0
 17 20  2  0  0  0  0
 25 27  1  0  0  0  0
M  END
>  <MolRegNo>
1422693

>  <m>
=

>  <Value>
20100

>  <Unit>
nM

>  <Type>
Ki

>  <pValue>
4.7

>  <Ligand Efficiency>
0

>  <Binding Efficiency>
0

>  <Surface Efficiency>
0

>  <Assay Index>
681120

>  <Assay Category>


>  <Assay Organism>


>  <Target ID>
17045

>  <Target Name>
Cytochrome P450 3A4

>  <Target Organism>
Homo sapiens

>  <Target Description>
Target is a single protein chain

>  <Sequence Accession>
P08684

>  <Reference>
J Med Chem 55 (1), 280-290 (2012)

>  <Pubmed ID>
22087535

>  <DOI>
10.1021/jm201207h

$$$$
1422694
Actelion Java MolfileCreator 1.0

 28 31  0  0  0  0  0  0  0  0999 V2000
    0.0000   -0.0000   -0.0000 O   0  0  0  0  0  0  0  0  0  0  0  0
    1.2954   -0.7369   -0.0000 C   0  0  0  0  0  0  0  0  0  0  0  0
    2.5790    0.0357   -0.0000 N   0  0  0  0  0  0  0  0  0  0  0  0
    1.2954   -2.2224   -0.0000 C   0  0  0  0  0  0  0  0  0  0  0  0
    2.5552    1.5450   -0.0000 C   0  0  0  0  0  0  0  0  0  0  0  0
   -0.0119   -2.9593   -0.0000 C   0  0  0  0  0  0  0  0  0  0  0  0
    2.5909   -2.9474   -0.0000 C   0  0  0  0  0  0  0  0  0  0  0  0
    3.8506    2.3056   -0.0000 C   0  0  0  0  0  0  0  0  0  0  0  0
    1.2479    2.2937   -0.0000 C   0  0  0  0  0  0  0  0  0  0  0  0
   -0.0238   -4.4568   -0.0000 C   0  0  0  0  0  0  0  0  0  0  0  0
   -1.3192   -2.1987   -0.0000 C   0  0  0  0  0  0  0  0  0  0  0  0
    2.5909   -4.4449   -0.0000 C   0  0  0  0  0  0  0  0  0  0  0  0
    3.8269    3.8150   -0.0000 C   0  0  0  0  0  0  0  0  0  0  0  0
    1.2241    3.8031   -0.0000 C   0  0  0  0  0  0  0  0  0  0  0  0
    1.2598   -5.1936   -0.0000 N   0  0  0  0  0  0  0  0  0  0  0  0
   -1.3311   -5.2055   -0.0000 C   0  0  0  0  0  0  0  0  0  0  0  0
   -2.6265   -2.9355   -0.0000 C   0  0  0  0  0  0  0  0  0  0  0  0
    3.8744   -5.1698   -0.0000 C   0  0  0  0  0  0  0  0  0  0  0  0
    2.5077    4.5637   -0.0000 C   0  0  0  0  0  0  0  0  0  0  0  0
   -2.6384   -4.4449   -0.0000 C   0  0  0  0  0  0  0  0  0  0  0  0
    5.1580   -4.4092   -0.0000 N   0  0  0  0  0  0  0  0  0  0  0  0
    3.8625   -6.6554   -0.0000 C   0  0  0  0  0  0  0  0  0  0  0  0
    2.4839    6.0731   -0.0000 N   0  0  0  0  0  0  0  0  0  0  0  0
    6.4534   -5.1342   -0.0000 C   0  0  0  0  0  0  0  0  0  0  0  0
    5.1461   -7.3923   -0.0000 N   0  0  0  0  0  0  0  0  0  0  0  0
    3.7674    6.8456   -0.0000 C   0  0  0  0  0  0  0  0  0  0  0  0
    1.1647    6.8218   -0.0000 C   0  0  0  0  0  0  0  0  0  0  0  0
    6.4534   -6.6317   -0.0000 C   0  0  0  0  0  0  0  0  0  0  0  0
  1  2  2  0  0  0  0
  2  3  1  0  0  0  0
  2  4  1  0  0  0  0
  3  5  1  0  0  0  0
  4  6  1  0  0  0  0
  4  7  2  0  0  0  0
  5  8  2  0  0  0  0
  5  9  1  0  0  0  0
  6 10  1  0  0  0  0
  6 11  2  0  0  0  0
  7 12  1  0  0  0  0
  8 13  1  0  0  0  0
  9 14  2  0  0  0  0
 10 15  1  0  0  0  0
 10 16  2  0  0  0  0
 11 17  1  0  0  0  0
 12 18  1  0  0  0  0
 13 19  2  0  0  0  0
 16 20  1  0  0  0  0
 18 21  2  0  0  0  0
 18 22  1  0  0  0  0
 19 23  1  0  0  0  0
 21 24  1  0  0  0  0
 22 25  2  0  0  0  0
 23 26  1  0  0  0  0
 23 27  1  0  0  0  0
 24 28  2  0  0  0  0
 12 15  2  0  0  0  0
 14 19  1  0  0  0  0
 17 20  2  0  0  0  0
 25 28  1  0  0  0  0
M  END
>  <MolRegNo>
1422694

>  <m>
=

>  <Value>
15930

>  <Unit>
nM

>  <Type>
Ki

>  <pValue>
4.8

>  <Ligand Efficiency>
0

>  <Binding Efficiency>
0

>  <Surface Efficiency>
0

>  <Assay Index>
681120

>  <Assay Category>


>  <Assay Organism>


>  <Target ID>
17045

>  <Target Name>
Cytochrome P450 3A4

>  <Target Organism>
Homo sapiens

>  <Target Description>
Target is a single protein chain

>  <Sequence Accession>
P08684

>  <Reference>
J Med Chem 55 (1), 280-290 (2012)

>  <Pubmed ID>
22087535

>  <DOI>
10.1021/jm201207h

$$$$
1422695
Actelion Java MolfileCreator 1.0

 25 28  0  0  0  0  0  0  0  0999 V2000
    0.0000   -0.0000   -0.0000 O   0  0  0  0  0  0  0  0  0  0  0  0
    1.2962   -0.7373   -0.0000 C   0  0  0  0  0  0  0  0  0  0  0  0
    2.5805    0.0357   -0.0000 N   0  0  0  0  0  0  0  0  0  0  0  0
    1.2962   -2.2237   -0.0000 C   0  0  0  0  0  0  0  0  0  0  0  0
    2.5567    1.5459   -0.0000 C   0  0  0  0  0  0  0  0  0  0  0  0
   -0.0119   -2.9610   -0.0000 C   0  0  0  0  0  0  0  0  0  0  0  0
    2.5924   -2.9491   -0.0000 C   0  0  0  0  0  0  0  0  0  0  0  0
    3.8529    2.3070   -0.0000 C   0  0  0  0  0  0  0  0  0  0  0  0
    1.2486    2.2951   -0.0000 C   0  0  0  0  0  0  0  0  0  0  0  0
   -0.0238   -4.4594   -0.0000 C   0  0  0  0  0  0  0  0  0  0  0  0
   -1.3200   -2.2000   -0.0000 C   0  0  0  0  0  0  0  0  0  0  0  0
    2.5924   -4.4475   -0.0000 C   0  0  0  0  0  0  0  0  0  0  0  0
    3.8291    3.8172   -0.0000 C   0  0  0  0  0  0  0  0  0  0  0  0
    1.2248    3.8053   -0.0000 C   0  0  0  0  0  0  0  0  0  0  0  0
    1.2605   -5.1966   -0.0000 N   0  0  0  0  0  0  0  0  0  0  0  0
   -1.3319   -5.2085   -0.0000 C   0  0  0  0  0  0  0  0  0  0  0  0
   -2.6281   -2.9372   -0.0000 C   0  0  0  0  0  0  0  0  0  0  0  0
    3.8767   -5.1729   -0.0000 C   0  0  0  0  0  0  0  0  0  0  0  0
    2.5091    4.5664   -0.0000 C   0  0  0  0  0  0  0  0  0  0  0  0
   -2.6399   -4.4475   -0.0000 C   0  0  0  0  0  0  0  0  0  0  0  0
    5.1610   -4.4118   -0.0000 N   0  0  0  0  0  0  0  0  0  0  0  0
    3.8648   -6.6593   -0.0000 C   0  0  0  0  0  0  0  0  0  0  0  0
    6.4572   -5.1372   -0.0000 C   0  0  0  0  0  0  0  0  0  0  0  0
    5.1491   -7.3966   -0.0000 N   0  0  0  0  0  0  0  0  0  0  0  0
    6.4572   -6.6355   -0.0000 C   0  0  0  0  0  0  0  0  0  0  0  0
  1  2  2  0  0  0  0
  2  3  1  0  0  0  0
  2  4  1  0  0  0  0
  3  5  1  0  0  0  0
  4  6  1  0  0  0  0
  4  7  2  0  0  0  0
  5  8  2  0  0  0  0
  5  9  1  0  0  0  0
  6 10  1  0  0  0  0
  6 11  2  0  0  0  0
  7 12  1  0  0  0  0
  8 13  1  0  0  0  0
  9 14  2  0  0  0  0
 10 15  1  0  0  0  0
 10 16  2  0  0  0  0
 11 17  1  0  0  0  0
 12 18  1  0  0  0  0
 13 19  2  0  0  0  0
 16 20  1  0  0  0  0
 18 21  2  0  0  0  0
 18 22  1  0  0  0  0
 21 23  1  0  0  0  0
 22 24  2  0  0  0  0
 23 25  2  0  0  0  0
 12 15  2  0  0  0  0
 14 19  1  0  0  0  0
 17 20  2  0  0  0  0
 24 25  1  0  0  0  0
M  END
>  <MolRegNo>
1422695

>  <m>
=

>  <Value>
6900

>  <Unit>
nM

>  <Type>
Ki

>  <pValue>
5.16

>  <Ligand Efficiency>
0

>  <Binding Efficiency>
0

>  <Surface Efficiency>
0

>  <Assay Index>
681120

>  <Assay Category>


>  <Assay Organism>


>  <Target ID>
17045

>  <Target Name>
Cytochrome P450 3A4

>  <Target Organism>
Homo sapiens

>  <Target Description>
Target is a single protein chain

>  <Sequence Accession>
P08684

>  <Reference>
J Med Chem 55 (1), 280-290 (2012)

>  <Pubmed ID>
22087535

>  <DOI>
10.1021/jm201207h

$$$$
1422696
Actelion Java MolfileCreator 1.0

 26 29  0  0  0  0  0  0  0  0999 V2000
    0.0000   -0.0000   -0.0000 O   0  0  0  0  0  0  0  0  0  0  0  0
    1.2959   -0.7371   -0.0000 C   0  0  0  0  0  0  0  0  0  0  0  0
    2.5799    0.0357   -0.0000 N   0  0  0  0  0  0  0  0  0  0  0  0
    1.2959   -2.2232   -0.0000 C   0  0  0  0  0  0  0  0  0  0  0  0
    2.5561    1.5455   -0.0000 C   0  0  0  0  0  0  0  0  0  0  0  0
   -0.0119   -2.9603   -0.0000 C   0  0  0  0  0  0  0  0  0  0  0  0
    2.5918   -2.9484   -0.0000 C   0  0  0  0  0  0  0  0  0  0  0  0
    3.8520    2.3064   -0.0000 C   0  0  0  0  0  0  0  0  0  0  0  0
    1.2483    2.2945   -0.0000 C   0  0  0  0  0  0  0  0  0  0  0  0
   -0.0238   -4.4583   -0.0000 C   0  0  0  0  0  0  0  0  0  0  0  0
   -1.3197   -2.1994   -0.0000 C   0  0  0  0  0  0  0  0  0  0  0  0
    2.5918   -4.4464   -0.0000 C   0  0  0  0  0  0  0  0  0  0  0  0
    3.8282    3.8163   -0.0000 C   0  0  0  0  0  0  0  0  0  0  0  0
    1.2245    3.8044   -0.0000 C   0  0  0  0  0  0  0  0  0  0  0  0
    1.2602   -5.1954   -0.0000 N   0  0  0  0  0  0  0  0  0  0  0  0
   -1.3315   -5.2073   -0.0000 C   0  0  0  0  0  0  0  0  0  0  0  0
   -2.6274   -2.9365   -0.0000 C   0  0  0  0  0  0  0  0  0  0  0  0
    3.8757   -5.1716   -0.0000 C   0  0  0  0  0  0  0  0  0  0  0  0
    2.5085    4.5653   -0.0000 C   0  0  0  0  0  0  0  0  0  0  0  0
   -2.6393   -4.4464   -0.0000 C   0  0  0  0  0  0  0  0  0  0  0  0
    5.1597   -4.4107   -0.0000 N   0  0  0  0  0  0  0  0  0  0  0  0
    3.8639   -6.6577   -0.0000 C   0  0  0  0  0  0  0  0  0  0  0  0
    2.4848    6.0752   -0.0000 C   0  0  0  0  0  0  0  0  0  0  0  0
    6.4556   -5.1360   -0.0000 C   0  0  0  0  0  0  0  0  0  0  0  0
    5.1478   -7.3948   -0.0000 N   0  0  0  0  0  0  0  0  0  0  0  0
    6.4556   -6.6339   -0.0000 C   0  0  0  0  0  0  0  0  0  0  0  0
  1  2  2  0  0  0  0
  2  3  1  0  0  0  0
  2  4  1  0  0  0  0
  3  5  1  0  0  0  0
  4  6  1  0  0  0  0
  4  7  2  0  0  0  0
  5  8  2  0  0  0  0
  5  9  1  0  0  0  0
  6 10  1  0  0  0  0
  6 11  2  0  0  0  0
  7 12  1  0  0  0  0
  8 13  1  0  0  0  0
  9 14  2  0  0  0  0
 10 15  1  0  0  0  0
 10 16  2  0  0  0  0
 11 17  1  0  0  0  0
 12 18  1  0  0  0  0
 13 19  2  0  0  0  0
 16 20  1  0  0  0  0
 18 21  2  0  0  0  0
 18 22  1  0  0  0  0
 19 23  1  0  0  0  0
 21 24  1  0  0  0  0
 22 25  2  0  0  0  0
 24 26  2  0  0  0  0
 12 15  2  0  0  0  0
 14 19  1  0  0  0  0
 17 20  2  0  0  0  0
 25 26  1  0  0  0  0
M  END
>  <MolRegNo>
1422696

>  <m>
=

>  <Value>
2700

>  <Unit>
nM

>  <Type>
Ki

>  <pValue>
5.57

>  <Ligand Efficiency>
0

>  <Binding Efficiency>
0

>  <Surface Efficiency>
0

>  <Assay Index>
681120

>  <Assay Category>


>  <Assay Organism>


>  <Target ID>
17045

>  <Target Name>
Cytochrome P450 3A4

>  <Target Organism>
Homo sapiens

>  <Target Description>
Target is a single protein chain

>  <Sequence Accession>
P08684

>  <Reference>
J Med Chem 55 (1), 280-290 (2012)

>  <Pubmed ID>
22087535

>  <DOI>
10.1021/jm201207h

$$$$
1422697
Actelion Java MolfileCreator 1.0

 27 30  0  0  0  0  0  0  0  0999 V2000
    0.0000   -0.0000   -0.0000 O   0  0  0  0  0  0  0  0  0  0  0  0
    1.2959   -0.7371   -0.0000 C   0  0  0  0  0  0  0  0  0  0  0  0
    2.5799    0.0357   -0.0000 N   0  0  0  0  0  0  0  0  0  0  0  0
    1.2959   -2.2233   -0.0000 C   0  0  0  0  0  0  0  0  0  0  0  0
    2.5562    1.5456   -0.0000 C   0  0  0  0  0  0  0  0  0  0  0  0
   -0.0119   -2.9604   -0.0000 C   0  0  0  0  0  0  0  0  0  0  0  0
    2.5918   -2.9485   -0.0000 C   0  0  0  0  0  0  0  0  0  0  0  0
    3.8521    2.3065   -0.0000 C   0  0  0  0  0  0  0  0  0  0  0  0
    1.2484    2.2946   -0.0000 C   0  0  0  0  0  0  0  0  0  0  0  0
   -0.0238   -4.4584   -0.0000 C   0  0  0  0  0  0  0  0  0  0  0  0
   -1.3197   -2.1995   -0.0000 C   0  0  0  0  0  0  0  0  0  0  0  0
    2.5918   -4.4465   -0.0000 C   0  0  0  0  0  0  0  0  0  0  0  0
    3.8283    3.8164   -0.0000 C   0  0  0  0  0  0  0  0  0  0  0  0
    1.2246    3.8045   -0.0000 C   0  0  0  0  0  0  0  0  0  0  0  0
    1.2603   -5.1956   -0.0000 N   0  0  0  0  0  0  0  0  0  0  0  0
   -1.3316   -5.2075   -0.0000 C   0  0  0  0  0  0  0  0  0  0  0  0
   -2.6275   -2.9366   -0.0000 C   0  0  0  0  0  0  0  0  0  0  0  0
    3.8759   -5.1718   -0.0000 C   0  0  0  0  0  0  0  0  0  0  0  0
    2.5086    4.5654   -0.0000 C   0  0  0  0  0  0  0  0  0  0  0  0
   -2.6394   -4.4465   -0.0000 C   0  0  0  0  0  0  0  0  0  0  0  0
    5.1599   -4.4109   -0.0000 N   0  0  0  0  0  0  0  0  0  0  0  0
    3.8640   -6.6579   -0.0000 C   0  0  0  0  0  0  0  0  0  0  0  0
    2.4848    6.0754   -0.0000 O   0  0  0  0  0  0  0  0  0  0  0  0
    6.4558   -5.1361   -0.0000 C   0  0  0  0  0  0  0  0  0  0  0  0
    5.1480   -7.3951   -0.0000 C   0  0  0  0  0  0  0  0  0  0  0  0
    3.7689    6.8482   -0.0000 C   0  0  0  0  0  0  0  0  0  0  0  0
    6.4558   -6.6341   -0.0000 N   0  0  0  0  0  0  0  0  0  0  0  0
  1  2  2  0  0  0  0
  2  3  1  0  0  0  0
  2  4  1  0  0  0  0
  3  5  1  0  0  0  0
  4  6  1  0  0  0  0
  4  7  2  0  0  0  0
  5  8  2  0  0  0  0
  5  9  1  0  0  0  0
  6 10  1  0  0  0  0
  6 11  2  0  0  0  0
  7 12  1  0  0  0  0
  8 13  1  0  0  0  0
  9 14  2  0  0  0  0
 10 15  1  0  0  0  0
 10 16  2  0  0  0  0
 11 17  1  0  0  0  0
 12 18  1  0  0  0  0
 13 19  2  0  0  0  0
 16 20  1  0  0  0  0
 18 21  2  0  0  0  0
 18 22  1  0  0  0  0
 19 23  1  0  0  0  0
 21 24  1  0  0  0  0
 22 25  2  0  0  0  0
 23 26  1  0  0  0  0
 24 27  2  0  0  0  0
 12 15  2  0  0  0  0
 14 19  1  0  0  0  0
 17 20  2  0  0  0  0
 25 27  1  0  0  0  0
M  END
>  <MolRegNo>
1422697

>  <m>
=

>  <Value>
2200

>  <Unit>
nM

>  <Type>
Ki

>  <pValue>
5.66

>  <Ligand Efficiency>
0

>  <Binding Efficiency>
0

>  <Surface Efficiency>
0

>  <Assay Index>
681120

>  <Assay Category>


>  <Assay Organism>


>  <Target ID>
17045

>  <Target Name>
Cytochrome P450 3A4

>  <Target Organism>
Homo sapiens

>  <Target Description>
Target is a single protein chain

>  <Sequence Accession>
P08684

>  <Reference>
J Med Chem 55 (1), 280-290 (2012)

>  <Pubmed ID>
22087535

>  <DOI>
10.1021/jm201207h

$$$$
1422698
Actelion Java MolfileCreator 1.0

 28 31  0  0  0  0  0  0  0  0999 V2000
    0.0000   -0.0000   -0.0000 O   0  0  0  0  0  0  0  0  0  0  0  0
    1.2954   -0.7369   -0.0000 C   0  0  0  0  0  0  0  0  0  0  0  0
    2.5790    0.0357   -0.0000 N   0  0  0  0  0  0  0  0  0  0  0  0
    1.2954   -2.2224   -0.0000 C   0  0  0  0  0  0  0  0  0  0  0  0
    2.5552    1.5450   -0.0000 C   0  0  0  0  0  0  0  0  0  0  0  0
   -0.0119   -2.9593   -0.0000 C   0  0  0  0  0  0  0  0  0  0  0  0
    2.5909   -2.9474   -0.0000 C   0  0  0  0  0  0  0  0  0  0  0  0
    3.8506    2.3056   -0.0000 C   0  0  0  0  0  0  0  0  0  0  0  0
    1.2479    2.2937   -0.0000 C   0  0  0  0  0  0  0  0  0  0  0  0
   -0.0238   -4.4568   -0.0000 C   0  0  0  0  0  0  0  0  0  0  0  0
   -1.3192   -2.1987   -0.0000 C   0  0  0  0  0  0  0  0  0  0  0  0
    2.5909   -4.4449   -0.0000 C   0  0  0  0  0  0  0  0  0  0  0  0
    3.8269    3.8150   -0.0000 C   0  0  0  0  0  0  0  0  0  0  0  0
    1.2241    3.8031   -0.0000 C   0  0  0  0  0  0  0  0  0  0  0  0
    1.2598   -5.1936   -0.0000 N   0  0  0  0  0  0  0  0  0  0  0  0
   -1.3311   -5.2055   -0.0000 C   0  0  0  0  0  0  0  0  0  0  0  0
   -2.6265   -2.9355   -0.0000 C   0  0  0  0  0  0  0  0  0  0  0  0
    3.8744   -5.1698   -0.0000 C   0  0  0  0  0  0  0  0  0  0  0  0
    2.5077    4.5637   -0.0000 C   0  0  0  0  0  0  0  0  0  0  0  0
   -2.6384   -4.4449   -0.0000 C   0  0  0  0  0  0  0  0  0  0  0  0
    5.1580   -4.4092   -0.0000 N   0  0  0  0  0  0  0  0  0  0  0  0
    3.8625   -6.6554   -0.0000 C   0  0  0  0  0  0  0  0  0  0  0  0
    2.4839    6.0731   -0.0000 N   0  0  0  0  0  0  0  0  0  0  0  0
    6.4534   -5.1342   -0.0000 C   0  0  0  0  0  0  0  0  0  0  0  0
    5.1461   -7.3923   -0.0000 C   0  0  0  0  0  0  0  0  0  0  0  0
    3.7674    6.8456   -0.0000 C   0  0  0  0  0  0  0  0  0  0  0  0
    1.1647    6.8218   -0.0000 C   0  0  0  0  0  0  0  0  0  0  0  0
    6.4534   -6.6317   -0.0000 N   0  0  0  0  0  0  0  0  0  0  0  0
  1  2  2  0  0  0  0
  2  3  1  0  0  0  0
  2  4  1  0  0  0  0
  3  5  1  0  0  0  0
  4  6  1  0  0  0  0
  4  7  2  0  0  0  0
  5  8  2  0  0  0  0
  5  9  1  0  0  0  0
  6 10  1  0  0  0  0
  6 11  2  0  0  0  0
  7 12  1  0  0  0  0
  8 13  1  0  0  0  0
  9 14  2  0  0  0  0
 10 15  1  0  0  0  0
 10 16  2  0  0  0  0
 11 17  1  0  0  0  0
 12 18  1  0  0  0  0
 13 19  2  0  0  0  0
 16 20  1  0  0  0  0
 18 21  2  0  0  0  0
 18 22  1  0  0  0  0
 19 23  1  0  0  0  0
 21 24  1  0  0  0  0
 22 25  2  0  0  0  0
 23 26  1  0  0  0  0
 23 27  1  0  0  0  0
 24 28  2  0  0  0  0
 12 15  2  0  0  0  0
 14 19  1  0  0  0  0
 17 20  2  0  0  0  0
 25 28  1  0  0  0  0
M  END
>  <MolRegNo>
1422698

>  <m>
=

>  <Value>
8400

>  <Unit>
nM

>  <Type>
Ki

>  <pValue>
5.08

>  <Ligand Efficiency>
0

>  <Binding Efficiency>
0

>  <Surface Efficiency>
0

>  <Assay Index>
681120

>  <Assay Category>


>  <Assay Organism>


>  <Target ID>
17045

>  <Target Name>
Cytochrome P450 3A4

>  <Target Organism>
Homo sapiens

>  <Target Description>
Target is a single protein chain

>  <Sequence Accession>
P08684

>  <Reference>
J Med Chem 55 (1), 280-290 (2012)

>  <Pubmed ID>
22087535

>  <DOI>
10.1021/jm201207h

$$$$
1422699
Actelion Java MolfileCreator 1.0

 25 28  0  0  0  0  0  0  0  0999 V2000
    0.0000   -0.0000   -0.0000 O   0  0  0  0  0  0  0  0  0  0  0  0
    1.2962   -0.7373   -0.0000 C   0  0  0  0  0  0  0  0  0  0  0  0
    2.5805    0.0357   -0.0000 N   0  0  0  0  0  0  0  0  0  0  0  0
    1.2962   -2.2237   -0.0000 C   0  0  0  0  0  0  0  0  0  0  0  0
    2.5567    1.5459   -0.0000 C   0  0  0  0  0  0  0  0  0  0  0  0
   -0.0119   -2.9610   -0.0000 C   0  0  0  0  0  0  0  0  0  0  0  0
    2.5924   -2.9491   -0.0000 C   0  0  0  0  0  0  0  0  0  0  0  0
    3.8529    2.3070   -0.0000 C   0  0  0  0  0  0  0  0  0  0  0  0
    1.2486    2.2951   -0.0000 C   0  0  0  0  0  0  0  0  0  0  0  0
   -0.0238   -4.4594   -0.0000 C   0  0  0  0  0  0  0  0  0  0  0  0
   -1.3200   -2.2000   -0.0000 C   0  0  0  0  0  0  0  0  0  0  0  0
    2.5924   -4.4475   -0.0000 C   0  0  0  0  0  0  0  0  0  0  0  0
    3.8291    3.8172   -0.0000 C   0  0  0  0  0  0  0  0  0  0  0  0
    1.2248    3.8053   -0.0000 C   0  0  0  0  0  0  0  0  0  0  0  0
    1.2605   -5.1966   -0.0000 N   0  0  0  0  0  0  0  0  0  0  0  0
   -1.3319   -5.2085   -0.0000 C   0  0  0  0  0  0  0  0  0  0  0  0
   -2.6281   -2.9372   -0.0000 C   0  0  0  0  0  0  0  0  0  0  0  0
    3.8767   -5.1729   -0.0000 C   0  0  0  0  0  0  0  0  0  0  0  0
    2.5091    4.5664   -0.0000 C   0  0  0  0  0  0  0  0  0  0  0  0
   -2.6399   -4.4475   -0.0000 C   0  0  0  0  0  0  0  0  0  0  0  0
    5.1610   -4.4118   -0.0000 N   0  0  0  0  0  0  0  0  0  0  0  0
    3.8648   -6.6593   -0.0000 C   0  0  0  0  0  0  0  0  0  0  0  0
    6.4572   -5.1372   -0.0000 C   0  0  0  0  0  0  0  0  0  0  0  0
    5.1491   -7.3966   -0.0000 C   0  0  0  0  0  0  0  0  0  0  0  0
    6.4572   -6.6355   -0.0000 N   0  0  0  0  0  0  0  0  0  0  0  0
  1  2  2  0  0  0  0
  2  3  1  0  0  0  0
  2  4  1  0  0  0  0
  3  5  1  0  0  0  0
  4  6  1  0  0  0  0
  4  7  2  0  0  0  0
  5  8  2  0  0  0  0
  5  9  1  0  0  0  0
  6 10  1  0  0  0  0
  6 11  2  0  0  0  0
  7 12  1  0  0  0  0
  8 13  1  0  0  0  0
  9 14  2  0  0  0  0
 10 15  1  0  0  0  0
 10 16  2  0  0  0  0
 11 17  1  0  0  0  0
 12 18  1  0  0  0  0
 13 19  2  0  0  0  0
 16 20  1  0  0  0  0
 18 21  2  0  0  0  0
 18 22  1  0  0  0  0
 21 23  1  0  0  0  0
 22 24  2  0  0  0  0
 23 25  2  0  0  0  0
 12 15  2  0  0  0  0
 14 19  1  0  0  0  0
 17 20  2  0  0  0  0
 24 25  1  0  0  0  0
M  END
>  <MolRegNo>
1422699

>  <m>
=

>  <Value>
2200

>  <Unit>
nM

>  <Type>
Ki

>  <pValue>
5.66

>  <Ligand Efficiency>
0

>  <Binding Efficiency>
0

>  <Surface Efficiency>
0

>  <Assay Index>
681120

>  <Assay Category>


>  <Assay Organism>


>  <Target ID>
17045

>  <Target Name>
Cytochrome P450 3A4

>  <Target Organism>
Homo sapiens

>  <Target Description>
Target is a single protein chain

>  <Sequence Accession>
P08684

>  <Reference>
J Med Chem 55 (1), 280-290 (2012)

>  <Pubmed ID>
22087535

>  <DOI>
10.1021/jm201207h

$$$$
1422700
Actelion Java MolfileCreator 1.0

 26 29  0  0  0  0  0  0  0  0999 V2000
    0.0000   -0.0000   -0.0000 O   0  0  0  0  0  0  0  0  0  0  0  0
    1.2959   -0.7371   -0.0000 C   0  0  0  0  0  0  0  0  0  0  0  0
    2.5799    0.0357   -0.0000 N   0  0  0  0  0  0  0  0  0  0  0  0
    1.2959   -2.2232   -0.0000 C   0  0  0  0  0  0  0  0  0  0  0  0
    2.5561    1.5455   -0.0000 C   0  0  0  0  0  0  0  0  0  0  0  0
   -0.0119   -2.9603   -0.0000 C   0  0  0  0  0  0  0  0  0  0  0  0
    2.5918   -2.9484   -0.0000 C   0  0  0  0  0  0  0  0  0  0  0  0
    3.8520    2.3064   -0.0000 C   0  0  0  0  0  0  0  0  0  0  0  0
    1.2483    2.2945   -0.0000 C   0  0  0  0  0  0  0  0  0  0  0  0
   -0.0238   -4.4583   -0.0000 C   0  0  0  0  0  0  0  0  0  0  0  0
   -1.3197   -2.1994   -0.0000 C   0  0  0  0  0  0  0  0  0  0  0  0
    2.5918   -4.4464   -0.0000 C   0  0  0  0  0  0  0  0  0  0  0  0
    3.8282    3.8163   -0.0000 C   0  0  0  0  0  0  0  0  0  0  0  0
    1.2245    3.8044   -0.0000 C   0  0  0  0  0  0  0  0  0  0  0  0
    1.2602   -5.1954   -0.0000 N   0  0  0  0  0  0  0  0  0  0  0  0
   -1.3315   -5.2073   -0.0000 C   0  0  0  0  0  0  0  0  0  0  0  0
   -2.6274   -2.9365   -0.0000 C   0  0  0  0  0  0  0  0  0  0  0  0
    3.8757   -5.1716   -0.0000 C   0  0  0  0  0  0  0  0  0  0  0  0
    2.5085    4.5653   -0.0000 C   0  0  0  0  0  0  0  0  0  0  0  0
   -2.6393   -4.4464   -0.0000 C   0  0  0  0  0  0  0  0  0  0  0  0
    5.1597   -4.4107   -0.0000 N   0  0  0  0  0  0  0  0  0  0  0  0
    3.8639   -6.6577   -0.0000 C   0  0  0  0  0  0  0  0  0  0  0  0
    2.4848    6.0752   -0.0000 C   0  0  0  0  0  0  0  0  0  0  0  0
    6.4556   -5.1360   -0.0000 C   0  0  0  0  0  0  0  0  0  0  0  0
    5.1478   -7.3948   -0.0000 C   0  0  0  0  0  0  0  0  0  0  0  0
    6.4556   -6.6339   -0.0000 N   0  0  0  0  0  0  0  0  0  0  0  0
  1  2  2  0  0  0  0
  2  3  1  0  0  0  0
  2  4  1  0  0  0  0
  3  5  1  0  0  0  0
  4  6  1  0  0  0  0
  4  7  2  0  0  0  0
  5  8  2  0  0  0  0
  5  9  1  0  0  0  0
  6 10  1  0  0  0  0
  6 11  2  0  0  0  0
  7 12  1  0  0  0  0
  8 13  1  0  0  0  0
  9 14  2  0  0  0  0
 10 15  1  0  0  0  0
 10 16  2  0  0  0  0
 11 17  1  0  0  0  0
 12 18  1  0  0  0  0
 13 19  2  0  0  0  0
 16 20  1  0  0  0  0
 18 21  2  0  0  0  0
 18 22  1  0  0  0  0
 19 23  1  0  0  0  0
 21 24  1  0  0  0  0
 22 25  2  0  0  0  0
 24 26  2  0  0  0  0
 12 15  2  0  0  0  0
 14 19  1  0  0  0  0
 17 20  2  0  0  0  0
 25 26  1  0  0  0  0
M  END
>  <MolRegNo>
1422700

>  <m>
=

>  <Value>
3000

>  <Unit>
nM

>  <Type>
Ki

>  <pValue>
5.52

>  <Ligand Efficiency>
0

>  <Binding Efficiency>
0

>  <Surface Efficiency>
0

>  <Assay Index>
681120

>  <Assay Category>


>  <Assay Organism>


>  <Target ID>
17045

>  <Target Name>
Cytochrome P450 3A4

>  <Target Organism>
Homo sapiens

>  <Target Description>
Target is a single protein chain

>  <Sequence Accession>
P08684

>  <Reference>
J Med Chem 55 (1), 280-290 (2012)

>  <Pubmed ID>
22087535

>  <DOI>
10.1021/jm201207h

$$$$
1428943
Actelion Java MolfileCreator 1.0

 36 42  0  0  0  0  0  0  0  0999 V2000
    0.0000   -0.0000   -0.0000 S   0  0  0  0  0  0  0  0  0  0  0  0
    1.4183   -0.4529   -0.0000 C   0  0  0  0  0  0  0  0  0  0  0  0
   -0.9058   -1.2037   -0.0000 C   0  0  0  0  0  0  0  0  0  0  0  0
    2.7054    0.3099   -0.0000 C   0  0  0  0  0  0  0  0  0  0  0  0
    1.4063   -1.9546   -0.0000 C   0  0  0  0  0  0  0  0  0  0  0  0
   -0.0238   -2.4194   -0.0000 C   0  0  0  0  0  0  0  0  0  0  0  0
   -2.4194   -1.1918   -0.0000 C   0  0  0  0  0  0  0  0  0  0  0  0
    3.9926   -0.4171   -0.0000 N   0  0  0  0  0  0  0  0  0  0  0  0
    2.6816    1.8354   -0.0000 N   0  0  0  0  0  0  0  0  0  0  0  0
    2.6935   -2.6935   -0.0000 N   0  0  0  0  0  0  0  0  0  0  0  0
   -3.1821   -2.4790   -0.0000 N   0  0  0  0  0  0  0  0  0  0  0  0
    3.9806   -1.9188   -0.0000 C   0  0  0  0  0  0  0  0  0  0  0  0
    1.3706    2.5981   -0.0000 C   0  0  0  0  0  0  0  0  0  0  0  0
    3.9687    2.5981   -0.0000 C   0  0  0  0  0  0  0  0  0  0  0  0
   -4.7076   -2.4670   -0.0000 C   0  0  0  0  0  0  0  0  0  0  0  0
   -2.4432   -3.7780   -0.0000 C   0  0  0  0  0  0  0  0  0  0  0  0
    5.2678   -2.6577   -0.0000 C   0  0  0  0  0  0  0  0  0  0  0  0
    1.3587    4.1117   -0.0000 C   0  0  0  0  0  0  0  0  0  0  0  0
    3.9568    4.0998   -0.0000 C   0  0  0  0  0  0  0  0  0  0  0  0
   -5.4704   -3.7423   -0.0000 C   0  0  0  0  0  0  0  0  0  0  0  0
   -3.2179   -5.0652   -0.0000 C   0  0  0  0  0  0  0  0  0  0  0  0
    5.2559   -4.1475   -0.0000 C   0  0  0  0  0  0  0  0  0  0  0  0
    6.5550   -1.8950   -0.0000 C   0  0  0  0  0  0  0  0  0  0  0  0
    2.6458    4.8745   -0.0000 O   0  0  0  0  0  0  0  0  0  0  0  0
   -4.7434   -5.0414   -0.0000 N   0  0  0  0  0  0  0  0  0  0  0  0
   -6.9721   -3.7184   -0.0000 C   0  0  0  0  0  0  0  0  0  0  0  0
    3.9449   -4.8864   -0.0000 F   0  0  0  0  0  0  0  0  0  0  0  0
    6.5430   -4.8864   -0.0000 C   0  0  0  0  0  0  0  0  0  0  0  0
    7.8421   -2.6339   -0.0000 C   0  0  0  0  0  0  0  0  0  0  0  0
    6.8529   -0.4171   -0.0000 C   0  0  0  0  0  0  0  0  0  0  0  0
   -5.5181   -6.3285   -0.0000 C   0  0  0  0  0  0  0  0  0  0  0  0
   -7.7468   -4.9937   -0.0000 O   0  0  0  0  0  0  0  0  0  0  0  0
    7.8302   -4.1237   -0.0000 C   0  0  0  0  0  0  0  0  0  0  0  0
    8.9386   -1.6089   -0.0000 N   0  0  0  0  0  0  0  0  0  0  0  0
    8.3307   -0.2384   -0.0000 C   0  0  0  0  0  0  0  0  0  0  0  0
   -7.0317   -6.3047   -0.0000 C   0  0  0  0  0  0  0  0  0  0  0  0
  1  2  1  0  0  0  0
  1  3  1  0  0  0  0
  2  4  2  0  0  0  0
  2  5  1  0  0  0  0
  3  6  2  0  0  0  0
  3  7  1  0  0  0  0
  4  8  1  0  0  0  0
  4  9  1  0  0  0  0
  5 10  2  0  0  0  0
  7 11  1  0  0  0  0
  8 12  2  0  0  0  0
  9 13  1  0  0  0  0
  9 14  1  0  0  0  0
 11 15  1  0  0  0  0
 11 16  1  0  0  0  0
 12 17  1  0  0  0  0
 13 18  1  0  0  0  0
 14 19  1  0  0  0  0
 15 20  1  0  0  0  0
 16 21  1  0  0  0  0
 17 22  2  0  0  0  0
 17 23  1  0  0  0  0
 18 24  1  0  0  0  0
 20 25  1  6  0  0  0
 20 26  1  0  0  0  0
 22 27  1  0  0  0  0
 22 28  1  0  0  0  0
 23 29  2  0  0  0  0
 23 30  1  0  0  0  0
 25 31  1  0  0  0  0
 26 32  1  0  0  0  0
 28 33  2  0  0  0  0
 29 34  1  0  0  0  0
 30 35  2  0  0  0  0
 31 36  1  0  0  0  0
  5  6  1  0  0  0  0
 10 12  1  0  0  0  0
 19 24  1  0  0  0  0
 21 25  1  0  0  0  0
 29 33  1  0  0  0  0
 32 36  1  0  0  0  0
 34 35  1  0  0  0  0
M  END
>  <MolRegNo>
1428943

>  <m>
=

>  <Value>
78000

>  <Unit>
nM

>  <Type>
Ki

>  <pValue>
4.11

>  <Ligand Efficiency>
0

>  <Binding Efficiency>
0

>  <Surface Efficiency>
0

>  <Assay Index>
689928

>  <Assay Category>


>  <Assay Organism>
Homo sapiens

>  <Target ID>
17045

>  <Target Name>
Cytochrome P450 3A4

>  <Target Organism>
Homo sapiens

>  <Target Description>
Target is a single protein chain

>  <Sequence Accession>
P08684

>  <Reference>
J Med Chem 55 (12), 5887-5900 (2012)

>  <Pubmed ID>
22626259

>  <DOI>
10.1021/jm3003747

$$$$
1428942
Actelion Java MolfileCreator 1.0

 38 43  0  0  0  0  0  0  0  0999 V2000
    0.0000   -0.0000   -0.0000 S   0  0  0  0  0  0  0  0  0  0  0  0
    1.4180   -0.4528   -0.0000 C   0  0  0  0  0  0  0  0  0  0  0  0
   -0.9056   -1.2035   -0.0000 C   0  0  0  0  0  0  0  0  0  0  0  0
    2.7050    0.3098   -0.0000 C   0  0  0  0  0  0  0  0  0  0  0  0
    1.4061   -1.9543   -0.0000 C   0  0  0  0  0  0  0  0  0  0  0  0
   -0.0357   -2.4190   -0.0000 C   0  0  0  0  0  0  0  0  0  0  0  0
   -2.4190   -1.1916   -0.0000 C   0  0  0  0  0  0  0  0  0  0  0  0
    3.9919   -0.4290   -0.0000 N   0  0  0  0  0  0  0  0  0  0  0  0
    2.6811    1.8351   -0.0000 N   0  0  0  0  0  0  0  0  0  0  0  0
    2.6931   -2.6931   -0.0000 N   0  0  0  0  0  0  0  0  0  0  0  0
   -3.1816   -2.4786   -0.0000 N   0  0  0  0  0  0  0  0  0  0  0  0
    3.9800   -1.9304   -0.0000 C   0  0  0  0  0  0  0  0  0  0  0  0
    3.9681    2.5977   -0.0000 C   0  0  0  0  0  0  0  0  0  0  0  0
    1.3704    2.5858   -0.0000 C   0  0  0  0  0  0  0  0  0  0  0  0
   -4.7069   -2.4667   -0.0000 C   0  0  0  0  0  0  0  0  0  0  0  0
   -2.4428   -3.7774   -0.0000 C   0  0  0  0  0  0  0  0  0  0  0  0
    5.2670   -2.6692   -0.0000 C   0  0  0  0  0  0  0  0  0  0  0  0
    3.9562    4.0992   -0.0000 C   0  0  0  0  0  0  0  0  0  0  0  0
    1.3584    4.0992   -0.0000 C   0  0  0  0  0  0  0  0  0  0  0  0
   -5.4695   -3.7536   -0.0000 C   0  0  0  0  0  0  0  0  0  0  0  0
   -3.2174   -5.0644   -0.0000 C   0  0  0  0  0  0  0  0  0  0  0  0
    5.2551   -4.1588   -0.0000 C   0  0  0  0  0  0  0  0  0  0  0  0
    6.5539   -1.9066   -0.0000 C   0  0  0  0  0  0  0  0  0  0  0  0
    2.6454    4.8618   -0.0000 O   0  0  0  0  0  0  0  0  0  0  0  0
   -4.7427   -5.0525   -0.0000 N   0  0  0  0  0  0  0  0  0  0  0  0
    3.9443   -4.8976   -0.0000 F   0  0  0  0  0  0  0  0  0  0  0  0
    6.5420   -4.8976   -0.0000 C   0  0  0  0  0  0  0  0  0  0  0  0
    7.8409   -2.6335   -0.0000 C   0  0  0  0  0  0  0  0  0  0  0  0
    6.8518   -0.4290   -0.0000 C   0  0  0  0  0  0  0  0  0  0  0  0
   -5.5172   -6.3394   -0.0000 C   0  0  0  0  0  0  0  0  0  0  0  0
    7.8290   -4.1349   -0.0000 C   0  0  0  0  0  0  0  0  0  0  0  0
    8.9372   -1.6206   -0.0000 N   0  0  0  0  0  0  0  0  0  0  0  0
    8.3294   -0.2502   -0.0000 C   0  0  0  0  0  0  0  0  0  0  0  0
   -7.0306   -6.3275   -0.0000 C   0  0  0  0  0  0  0  0  0  0  0  0
   -4.2303   -7.0782   -0.0000 C   0  0  0  0  0  0  0  0  0  0  0  0
   -5.5291   -7.8290   -0.0000 C   0  0  0  0  0  0  0  0  0  0  0  0
   -7.7813   -5.0048   -0.0000 O   0  0  0  0  0  0  0  0  0  0  0  0
   -7.8051   -7.6145   -0.0000 N   0  0  0  0  0  0  0  0  0  0  0  0
  1  2  1  0  0  0  0
  1  3  1  0  0  0  0
  2  4  2  0  0  0  0
  2  5  1  0  0  0  0
  3  6  2  0  0  0  0
  3  7  1  0  0  0  0
  4  8  1  0  0  0  0
  4  9  1  0  0  0  0
  5 10  2  0  0  0  0
  7 11  1  0  0  0  0
  8 12  2  0  0  0  0
  9 13  1  0  0  0  0
  9 14  1  0  0  0  0
 11 15  1  0  0  0  0
 11 16  1  0  0  0  0
 12 17  1  0  0  0  0
 13 18  1  0  0  0  0
 14 19  1  0  0  0  0
 15 20  1  0  0  0  0
 16 21  1  0  0  0  0
 17 22  2  0  0  0  0
 17 23  1  0  0  0  0
 18 24  1  0  0  0  0
 20 25  1  0  0  0  0
 22 26  1  0  0  0  0
 22 27  1  0  0  0  0
 23 28  2  0  0  0  0
 23 29  1  0  0  0  0
 25 30  1  0  0  0  0
 27 31  2  0  0  0  0
 28 32  1  0  0  0  0
 29 33  2  0  0  0  0
 30 34  1  0  0  0  0
 30 35  1  0  0  0  0
 30 36  1  0  0  0  0
 34 37  2  0  0  0  0
 34 38  1  0  0  0  0
  5  6  1  0  0  0  0
 10 12  1  0  0  0  0
 19 24  1  0  0  0  0
 21 25  1  0  0  0  0
 28 31  1  0  0  0  0
 32 33  1  0  0  0  0
M  END
>  <MolRegNo>
1428942

>  <m>
=

>  <Value>
6600

>  <Unit>
nM

>  <Type>
Ki

>  <pValue>
5.18

>  <Ligand Efficiency>
0

>  <Binding Efficiency>
0

>  <Surface Efficiency>
0

>  <Assay Index>
689928

>  <Assay Category>


>  <Assay Organism>
Homo sapiens

>  <Target ID>
17045

>  <Target Name>
Cytochrome P450 3A4

>  <Target Organism>
Homo sapiens

>  <Target Description>
Target is a single protein chain

>  <Sequence Accession>
P08684

>  <Reference>
J Med Chem 55 (12), 5887-5900 (2012)

>  <Pubmed ID>
22626259

>  <DOI>
10.1021/jm3003747

$$$$
630975
Actelion Java MolfileCreator 1.0

 35 38  0  0  0  0  0  0  0  0999 V2000
    0.0000   -0.0000   -0.0000 S   0  0  0  0  0  0  0  0  0  0  0  0
   -1.0825    1.0825   -0.0000 O   0  0  0  0  0  0  0  0  0  0  0  0
    0.7256    1.3204   -0.0000 O   0  0  0  0  0  0  0  0  0  0  0  0
   -1.3085   -0.7494   -0.0000 N   0  0  0  0  0  0  0  0  0  0  0  0
    1.2966   -0.7256   -0.0000 C   0  0  0  0  0  0  0  0  0  0  0  0
   -1.3085   -2.2364   -0.0000 C   0  0  0  0  0  0  0  0  0  0  0  0
   -2.6289   -0.0000   -0.0000 C   0  0  0  0  0  0  0  0  0  0  0  0
   -0.0238   -2.9620   -0.0000 N   0  0  0  0  0  0  0  0  0  0  0  0
   -2.6051   -2.9858   -0.0000 C   0  0  0  0  0  0  0  0  0  0  0  0
   -0.0238   -4.4609   -0.0000 C   0  0  0  0  0  0  0  0  0  0  0  0
   -2.6289   -4.4728   -0.0000 C   0  0  0  0  0  0  0  0  0  0  0  0
   -3.9137   -2.2245   -0.0000 C   0  0  0  0  0  0  0  0  0  0  0  0
   -1.3323   -5.1984   -0.0000 C   0  0  0  0  0  0  0  0  0  0  0  0
   -3.9256   -0.7137   -0.0000 N   0  0  0  0  0  0  0  0  0  0  0  0
   -5.2341    0.0476   -0.0000 C   0  0  0  0  0  0  0  0  0  0  0  0
   -6.5545   -0.6899   -0.0000 N   0  0  0  0  0  0  0  0  0  0  0  0
   -5.2460    1.5702   -0.0000 C   0  0  0  0  0  0  0  0  0  0  0  0
   -7.8630    0.0714   -0.0000 C   0  0  0  0  0  0  0  0  0  0  0  0
   -6.5545    2.3315   -0.0000 C   0  0  0  0  0  0  0  0  0  0  0  0
   -3.9612    2.3315   -0.0000 C   0  0  0  0  0  0  0  0  0  0  0  0
   -7.8749    1.5940   -0.0000 N   0  0  0  0  0  0  0  0  0  0  0  0
   -9.1715   -0.6662   -0.0000 N   0  0  0  0  0  0  0  0  0  0  0  0
   -2.6765    1.5940   -0.0000 F   0  0  0  0  0  0  0  0  0  0  0  0
   -3.9731    3.8423   -0.0000 F   0  0  0  0  0  0  0  0  0  0  0  0
   -2.6765    3.1048   -0.0000 F   0  0  0  0  0  0  0  0  0  0  0  0
   -9.1834   -2.1531   -0.0000 C   0  0  0  0  0  0  0  0  0  0  0  0
  -10.4919   -2.8906   -0.0000 C   0  0  0  0  0  0  0  0  0  0  0  0
   -7.8987   -2.8906   -0.0000 C   0  0  0  0  0  0  0  0  0  0  0  0
  -10.5038   -4.3895   -0.0000 C   0  0  0  0  0  0  0  0  0  0  0  0
   -7.9106   -4.3776   -0.0000 C   0  0  0  0  0  0  0  0  0  0  0  0
   -9.2191   -5.1270   -0.0000 C   0  0  0  0  0  0  0  0  0  0  0  0
  -11.6220   -5.3768   -0.0000 C   0  0  0  0  0  0  0  0  0  0  0  0
   -9.5403   -6.5783   -0.0000 N   0  0  0  0  0  0  0  0  0  0  0  0
  -11.0272   -6.7329   -0.0000 C   0  0  0  0  0  0  0  0  0  0  0  0
  -11.7886   -8.0176   -0.0000 O   0  0  0  0  0  0  0  0  0  0  0  0
  1  2  2  0  0  0  0
  1  3  2  0  0  0  0
  1  4  1  0  0  0  0
  1  5  1  0  0  0  0
  4  6  1  0  0  0  0
  4  7  1  0  0  0  0
  6  8  2  0  0  0  0
  6  9  1  0  0  0  0
  8 10  1  0  0  0  0
  9 11  2  0  0  0  0
  9 12  1  0  0  0  0
 10 13  2  0  0  0  0
 12 14  1  0  0  0  0
 14 15  1  0  0  0  0
 15 16  2  0  0  0  0
 15 17  1  0  0  0  0
 16 18  1  0  0  0  0
 17 19  2  0  0  0  0
 17 20  1  0  0  0  0
 18 21  2  0  0  0  0
 18 22  1  0  0  0  0
 20 23  1  0  0  0  0
 20 24  1  0  0  0  0
 20 25  1  0  0  0  0
 22 26  1  0  0  0  0
 26 27  2  0  0  0  0
 26 28  1  0  0  0  0
 27 29  1  0  0  0  0
 28 30  2  0  0  0  0
 29 31  2  0  0  0  0
 29 32  1  0  0  0  0
 31 33  1  0  0  0  0
 32 34  1  0  0  0  0
 34 35  2  0  0  0  0
 11 13  1  0  0  0  0
 19 21  1  0  0  0  0
 30 31  1  0  0  0  0
 33 34  1  0  0  0  0
M  END
>  <MolRegNo>
630975

>  <m>
=

>  <Value>
12000

>  <Unit>
nM

>  <Type>
Ki

>  <pValue>
4.92

>  <Ligand Efficiency>
0

>  <Binding Efficiency>
0

>  <Surface Efficiency>
0

>  <Assay Index>
695716

>  <Assay Category>


>  <Assay Organism>
Homo sapiens

>  <Target ID>
17045

>  <Target Name>
Cytochrome P450 3A4

>  <Target Organism>
Homo sapiens

>  <Target Description>
Target is a single protein chain

>  <Sequence Accession>
P08684

>  <Reference>
J Med Chem 55 (11), 4896-4933 (2012)

>  <Pubmed ID>
22409598

>  <DOI>
10.1021/jm300065h

$$$$
14785
Actelion Java MolfileCreator 1.0

 29 31  0  0  0  0  0  0  0  0999 V2000
    0.0000   -0.0000   -0.0000 O   0  0  0  0  0  0  0  0  0  0  0  0
    1.3024    0.7814   -0.0000 C   0  0  0  0  0  0  0  0  0  0  0  0
   -0.0118   -1.4918   -0.0000 C   0  0  0  0  0  0  0  0  0  0  0  0
    1.2906    2.2970   -0.0000 C   0  0  0  0  0  0  0  0  0  0  0  0
    2.5693    0.0355   -0.0000 C   0  0  0  0  0  0  0  0  0  0  0  0
   -1.3261   -2.2259   -0.0000 C   0  0  0  0  0  0  0  0  0  0  0  0
   -0.0355    3.0547   -0.0000 O   0  0  0  0  0  0  0  0  0  0  0  0
    2.5575    3.0547   -0.0000 C   0  0  0  0  0  0  0  0  0  0  0  0
    3.8599    0.7933   -0.0000 C   0  0  0  0  0  0  0  0  0  0  0  0
   -1.3261   -3.7178   -0.0000 O   0  0  0  0  0  0  0  0  0  0  0  0
   -1.3498    2.3207   -0.0000 C   0  0  0  0  0  0  0  0  0  0  0  0
    3.8480    2.3207   -0.0000 C   0  0  0  0  0  0  0  0  0  0  0  0
    5.1386    0.0355   -0.0000 N   0  0  0  0  0  0  0  0  0  0  0  0
   -0.0355   -4.4400   -0.0000 C   0  0  0  0  0  0  0  0  0  0  0  0
   -2.6640    3.0784   -0.0000 C   0  0  0  0  0  0  0  0  0  0  0  0
    5.1386    3.0784   -0.0000 C   0  0  0  0  0  0  0  0  0  0  0  0
    6.4292    0.7933   -0.0000 C   0  0  0  0  0  0  0  0  0  0  0  0
   -3.9783    2.3443   -0.0000 O   0  0  0  0  0  0  0  0  0  0  0  0
    6.4292    2.3207   -0.0000 N   0  0  0  0  0  0  0  0  0  0  0  0
    5.1386    4.5821   -0.0000 N   0  0  0  0  0  0  0  0  0  0  0  0
   -3.9901    0.8525   -0.0000 C   0  0  0  0  0  0  0  0  0  0  0  0
    6.4292    5.3399   -0.0000 C   0  0  0  0  0  0  0  0  0  0  0  0
    7.6961    4.5940   -0.0000 C   0  0  0  0  0  0  0  0  0  0  0  0
    6.4055    6.8554   -0.0000 C   0  0  0  0  0  0  0  0  0  0  0  0
    9.0103    5.3517   -0.0000 C   0  0  0  0  0  0  0  0  0  0  0  0
    7.6724    7.6132   -0.0000 C   0  0  0  0  0  0  0  0  0  0  0  0
   10.3009    4.6058   -0.0000 C   0  0  0  0  0  0  0  0  0  0  0  0
    8.9985    6.8672   -0.0000 C   0  0  0  0  0  0  0  0  0  0  0  0
   11.5914    3.8717   -0.0000 C   0  0  0  0  0  0  0  0  0  0  0  0
  1  2  1  0  0  0  0
  1  3  1  0  0  0  0
  2  4  1  0  0  0  0
  2  5  2  0  0  0  0
  3  6  1  0  0  0  0
  4  7  1  0  0  0  0
  4  8  2  0  0  0  0
  5  9  1  0  0  0  0
  6 10  1  0  0  0  0
  7 11  1  0  0  0  0
  8 12  1  0  0  0  0
  9 13  2  0  0  0  0
 10 14  1  0  0  0  0
 11 15  1  0  0  0  0
 12 16  2  0  0  0  0
 13 17  1  0  0  0  0
 15 18  1  0  0  0  0
 16 19  1  0  0  0  0
 16 20  1  0  0  0  0
 18 21  1  0  0  0  0
 20 22  1  0  0  0  0
 22 23  2  0  0  0  0
 22 24  1  0  0  0  0
 23 25  1  0  0  0  0
 24 26  2  0  0  0  0
 25 27  1  0  0  0  0
 25 28  2  0  0  0  0
 27 29  3  0  0  0  0
  9 12  1  0  0  0  0
 17 19  2  0  0  0  0
 26 28  1  0  0  0  0
M  END
>  <MolRegNo>
14785

>  <m>
=

>  <Value>
6300

>  <Unit>
nM

>  <Type>
Ki

>  <pValue>
5.2

>  <Ligand Efficiency>
0

>  <Binding Efficiency>
0

>  <Surface Efficiency>
0

>  <Assay Index>
695715

>  <Assay Category>


>  <Assay Organism>


>  <Target ID>
17045

>  <Target Name>
Cytochrome P450 3A4

>  <Target Organism>
Homo sapiens

>  <Target Description>
Target is a single protein chain

>  <Sequence Accession>
P08684

>  <Reference>
J Med Chem 55 (11), 4896-4933 (2012)

>  <Pubmed ID>
22409598

>  <DOI>
10.1021/jm300065h

$$$$
14805
Actelion Java MolfileCreator 1.0

 40 44  0  0  0  0  0  0  0  0999 V2000
    0.0000   -0.0000   -0.0000 Cl  0  0  0  0  0  0  0  0  0  0  0  0
    0.0000   -1.4883   -0.0000 C   0  0  0  0  0  0  0  0  0  0  0  0
    1.2978   -2.2265   -0.0000 C   0  0  0  0  0  0  0  0  0  0  0  0
   -1.2978   -2.2384   -0.0000 C   0  0  0  0  0  0  0  0  0  0  0  0
    2.5837   -1.4526   -0.0000 O   0  0  0  0  0  0  0  0  0  0  0  0
    1.2978   -3.7148   -0.0000 C   0  0  0  0  0  0  0  0  0  0  0  0
   -1.2859   -3.7148   -0.0000 C   0  0  0  0  0  0  0  0  0  0  0  0
    3.8815   -2.1908   -0.0000 C   0  0  0  0  0  0  0  0  0  0  0  0
   -0.0119   -4.4531   -0.0000 C   0  0  0  0  0  0  0  0  0  0  0  0
   -2.5956   -4.4531   -0.0000 N   0  0  0  0  0  0  0  0  0  0  0  0
    5.1555   -1.4169   -0.0000 C   0  0  0  0  0  0  0  0  0  0  0  0
   -2.5956   -5.9414   -0.0000 C   0  0  0  0  0  0  0  0  0  0  0  0
    6.4415   -2.1551   -0.0000 C   0  0  0  0  0  0  0  0  0  0  0  0
    5.1317    0.0833   -0.0000 C   0  0  0  0  0  0  0  0  0  0  0  0
   -1.2978   -6.6796   -0.0000 N   0  0  0  0  0  0  0  0  0  0  0  0
   -3.9054   -6.6915   -0.0000 C   0  0  0  0  0  0  0  0  0  0  0  0
    7.7274   -1.3812   -0.0000 C   0  0  0  0  0  0  0  0  0  0  0  0
    6.4057    0.8573   -0.0000 C   0  0  0  0  0  0  0  0  0  0  0  0
   -1.2978   -8.1798   -0.0000 C   0  0  0  0  0  0  0  0  0  0  0  0
   -3.9173   -8.1917   -0.0000 C   0  0  0  0  0  0  0  0  0  0  0  0
   -5.2032   -5.9295   -0.0000 C   0  0  0  0  0  0  0  0  0  0  0  0
    9.0252   -2.1194   -0.0000 F   0  0  0  0  0  0  0  0  0  0  0  0
    7.7035    0.1310   -0.0000 C   0  0  0  0  0  0  0  0  0  0  0  0
   -2.6075   -8.9180   -0.0000 N   0  0  0  0  0  0  0  0  0  0  0  0
   -5.2151   -8.9299   -0.0000 C   0  0  0  0  0  0  0  0  0  0  0  0
   -6.5129   -6.6677   -0.0000 C   0  0  0  0  0  0  0  0  0  0  0  0
   -6.5367   -8.1679   -0.0000 C   0  0  0  0  0  0  0  0  0  0  0  0
   -7.8226   -5.9057   -0.0000 C   0  0  0  0  0  0  0  0  0  0  0  0
   -9.0490   -6.7867   -0.0000 O   0  0  0  0  0  0  0  0  0  0  0  0
   -8.3108   -4.4650   -0.0000 C   0  0  0  0  0  0  0  0  0  0  0  0
  -10.2754   -5.8818   -0.0000 C   0  0  0  0  0  0  0  0  0  0  0  0
   -9.8229   -4.4531   -0.0000 C   0  0  0  0  0  0  0  0  0  0  0  0
  -11.5970   -6.6081   -0.0000 C   0  0  0  0  0  0  0  0  0  0  0  0
  -12.8948   -5.8223   -0.0000 N   0  0  0  0  0  0  0  0  0  0  0  0
  -14.2045   -6.5486   -0.0000 C   0  0  0  0  0  0  0  0  0  0  0  0
  -15.5023   -5.7628   -0.0000 C   0  0  0  0  0  0  0  0  0  0  0  0
  -16.8240   -6.4891   -0.0000 S   0  0  0  0  0  0  0  0  0  0  0  0
  -16.0977   -7.7631   -0.0000 O   0  0  0  0  0  0  0  0  0  0  0  0
  -17.5979   -7.7631   -0.0000 O   0  0  0  0  0  0  0  0  0  0  0  0
  -18.1218   -5.7032   -0.0000 C   0  0  0  0  0  0  0  0  0  0  0  0
  1  2  1  0  0  0  0
  2  3  2  0  0  0  0
  2  4  1  0  0  0  0
  3  5  1  0  0  0  0
  3  6  1  0  0  0  0
  4  7  2  0  0  0  0
  5  8  1  0  0  0  0
  6  9  2  0  0  0  0
  7 10  1  0  0  0  0
  8 11  1  0  0  0  0
 10 12  1  0  0  0  0
 11 13  2  0  0  0  0
 11 14  1  0  0  0  0
 12 15  2  0  0  0  0
 12 16  1  0  0  0  0
 13 17  1  0  0  0  0
 14 18  2  0  0  0  0
 15 19  1  0  0  0  0
 16 20  1  0  0  0  0
 16 21  2  0  0  0  0
 17 22  1  0  0  0  0
 17 23  2  0  0  0  0
 19 24  2  0  0  0  0
 20 25  2  0  0  0  0
 21 26  1  0  0  0  0
 25 27  1  0  0  0  0
 26 28  1  0  0  0  0
 28 29  1  0  0  0  0
 28 30  2  0  0  0  0
 29 31  1  0  0  0  0
 30 32  1  0  0  0  0
 31 33  1  0  0  0  0
 33 34  1  0  0  0  0
 34 35  1  0  0  0  0
 35 36  1  0  0  0  0
 36 37  1  0  0  0  0
 37 38  2  0  0  0  0
 37 39  2  0  0  0  0
 37 40  1  0  0  0  0
  7  9  1  0  0  0  0
 18 23  1  0  0  0  0
 20 24  1  0  0  0  0
 26 27  2  0  0  0  0
 31 32  2  0  0  0  0
M  END
>  <MolRegNo>
14805

>  <m>
=

>  <Value>
1700

>  <Unit>
nM

>  <Type>
Ki

>  <pValue>
5.77

>  <Ligand Efficiency>
0

>  <Binding Efficiency>
0

>  <Surface Efficiency>
0

>  <Assay Index>
695727

>  <Assay Category>


>  <Assay Organism>
Homo sapiens

>  <Target ID>
17045

>  <Target Name>
Cytochrome P450 3A4

>  <Target Organism>
Homo sapiens

>  <Target Description>
Target is a single protein chain

>  <Sequence Accession>
P08684

>  <Reference>
J Med Chem 55 (11), 4896-4933 (2012)

>  <Pubmed ID>
22409598

>  <DOI>
10.1021/jm300065h

$$$$
361469
Actelion Java MolfileCreator 1.0

 33 36  0  0  0  0  0  0  0  0999 V2000
    0.0000   -0.0000   -0.0000 Cl  0  0  0  0  0  0  0  0  0  0  0  0
   -1.4953    0.1648   -0.0000 C   0  0  0  0  0  0  0  0  0  0  0  0
   -2.1193    1.5424   -0.0000 C   0  0  0  0  0  0  0  0  0  0  0  0
   -2.3901   -1.0361   -0.0000 C   0  0  0  0  0  0  0  0  0  0  0  0
   -1.2480    2.7669   -0.0000 N   0  0  0  0  0  0  0  0  0  0  0  0
   -3.6146    1.7072   -0.0000 C   0  0  0  0  0  0  0  0  0  0  0  0
   -3.8854   -0.8713   -0.0000 C   0  0  0  0  0  0  0  0  0  0  0  0
   -1.8720    4.1444   -0.0000 C   0  0  0  0  0  0  0  0  0  0  0  0
   -4.5094    0.5063   -0.0000 C   0  0  0  0  0  0  0  0  0  0  0  0
   -4.2386    3.0848   -0.0000 C   0  0  0  0  0  0  0  0  0  0  0  0
   -3.3673    4.3092   -0.0000 O   0  0  0  0  0  0  0  0  0  0  0  0
   -1.0008    5.3689   -0.0000 C   0  0  0  0  0  0  0  0  0  0  0  0
   -1.4717    6.8053   -0.0000 S   0  0  0  0  0  0  0  0  0  0  0  0
    0.4827    5.3807   -0.0000 C   0  0  0  0  0  0  0  0  0  0  0  0
   -0.2708    7.7001   -0.0000 C   0  0  0  0  0  0  0  0  0  0  0  0
    0.9301    6.8171   -0.0000 N   0  0  0  0  0  0  0  0  0  0  0  0
   -0.2826    9.2072   -0.0000 N   0  0  0  0  0  0  0  0  0  0  0  0
    1.0008    9.9607   -0.0000 C   0  0  0  0  0  0  0  0  0  0  0  0
    2.2841    9.2307   -0.0000 N   0  0  0  0  0  0  0  0  0  0  0  0
    0.9890   11.4678   -0.0000 C   0  0  0  0  0  0  0  0  0  0  0  0
    3.5675    9.9843   -0.0000 C   0  0  0  0  0  0  0  0  0  0  0  0
    2.2724   12.2213   -0.0000 C   0  0  0  0  0  0  0  0  0  0  0  0
    3.5557   11.4913   -0.0000 N   0  0  0  0  0  0  0  0  0  0  0  0
    4.8508    9.2543   -0.0000 C   0  0  0  0  0  0  0  0  0  0  0  0
    2.2606   13.7284   -0.0000 N   0  0  0  0  0  0  0  0  0  0  0  0
    0.9537   14.4819   -0.0000 C   0  0  0  0  0  0  0  0  0  0  0  0
    3.5439   14.4819   -0.0000 C   0  0  0  0  0  0  0  0  0  0  0  0
    0.9419   15.9889   -0.0000 C   0  0  0  0  0  0  0  0  0  0  0  0
    3.5322   15.9889   -0.0000 C   0  0  0  0  0  0  0  0  0  0  0  0
    2.2253   16.7543   -0.0000 N   0  0  0  0  0  0  0  0  0  0  0  0
    2.2135   18.2613   -0.0000 C   0  0  0  0  0  0  0  0  0  0  0  0
    3.4968   19.0148   -0.0000 C   0  0  0  0  0  0  0  0  0  0  0  0
    3.4851   20.5219   -0.0000 O   0  0  0  0  0  0  0  0  0  0  0  0
  1  2  1  0  0  0  0
  2  3  2  0  0  0  0
  2  4  1  0  0  0  0
  3  5  1  0  0  0  0
  3  6  1  0  0  0  0
  4  7  2  0  0  0  0
  5  8  1  0  0  0  0
  6  9  2  0  0  0  0
  6 10  1  0  0  0  0
  8 11  2  0  0  0  0
  8 12  1  0  0  0  0
 12 13  1  0  0  0  0
 12 14  2  0  0  0  0
 13 15  1  0  0  0  0
 14 16  1  0  0  0  0
 15 17  1  0  0  0  0
 17 18  1  0  0  0  0
 18 19  2  0  0  0  0
 18 20  1  0  0  0  0
 19 21  1  0  0  0  0
 20 22  2  0  0  0  0
 21 23  2  0  0  0  0
 21 24  1  0  0  0  0
 22 25  1  0  0  0  0
 25 26  1  0  0  0  0
 25 27  1  0  0  0  0
 26 28  1  0  0  0  0
 27 29  1  0  0  0  0
 28 30  1  0  0  0  0
 30 31  1  0  0  0  0
 31 32  1  0  0  0  0
 32 33  1  0  0  0  0
  7  9  1  0  0  0  0
 15 16  2  0  0  0  0
 22 23  1  0  0  0  0
 29 30  1  0  0  0  0
M  END
>  <MolRegNo>
361469

>  <m>
=

>  <Value>
6300

>  <Unit>
nM

>  <Type>
Ki

>  <pValue>
5.2

>  <Ligand Efficiency>
0

>  <Binding Efficiency>
0

>  <Surface Efficiency>
0

>  <Assay Index>
695716

>  <Assay Category>


>  <Assay Organism>
Homo sapiens

>  <Target ID>
17045

>  <Target Name>
Cytochrome P450 3A4

>  <Target Organism>
Homo sapiens

>  <Target Description>
Target is a single protein chain

>  <Sequence Accession>
P08684

>  <Reference>
J Med Chem 55 (11), 4896-4933 (2012)

>  <Pubmed ID>
22409598

>  <DOI>
10.1021/jm300065h

$$$$
88797
Actelion Java MolfileCreator 1.0

 37 41  0  0  0  0  0  0  0  0999 V2000
    0.0000   -0.0000   -0.0000 O   0  0  0  0  0  0  0  0  0  0  0  0
   -0.0238    1.5136   -0.0000 C   0  0  0  0  0  0  0  0  0  0  0  0
    1.2633    2.2882   -0.0000 N   0  0  0  0  0  0  0  0  0  0  0  0
   -1.3348    2.2644   -0.0000 C   0  0  0  0  0  0  0  0  0  0  0  0
    2.5743    1.5612   -0.0000 C   0  0  0  0  0  0  0  0  0  0  0  0
   -1.3467    3.7780   -0.0000 C   0  0  0  0  0  0  0  0  0  0  0  0
   -2.6458    1.5255   -0.0000 C   0  0  0  0  0  0  0  0  0  0  0  0
    3.8614    2.3359   -0.0000 C   0  0  0  0  0  0  0  0  0  0  0  0
    2.5624    0.0715   -0.0000 C   0  0  0  0  0  0  0  0  0  0  0  0
   -2.6935    4.5288   -0.0000 C   0  0  0  0  0  0  0  0  0  0  0  0
   -3.9568    2.2644   -0.0000 C   0  0  0  0  0  0  0  0  0  0  0  0
    5.1605    1.6089   -0.0000 C   0  0  0  0  0  0  0  0  0  0  0  0
    3.8495   -0.6555   -0.0000 C   0  0  0  0  0  0  0  0  0  0  0  0
   -3.9687    3.7780   -0.0000 C   0  0  0  0  0  0  0  0  0  0  0  0
    6.4476    2.3836   -0.0000 N   0  0  0  0  0  0  0  0  0  0  0  0
    5.1605    0.1192   -0.0000 C   0  0  0  0  0  0  0  0  0  0  0  0
   -5.3035    4.5288   -0.0000 C   0  0  0  0  0  0  0  0  0  0  0  0
    7.7467    1.6566   -0.0000 C   0  0  0  0  0  0  0  0  0  0  0  0
    6.4476   -0.6197   -0.0000 C   0  0  0  0  0  0  0  0  0  0  0  0
   -6.6144    3.7899   -0.0000 N   0  0  0  0  0  0  0  0  0  0  0  0
    9.0100    2.4313   -0.0000 N   0  0  0  0  0  0  0  0  0  0  0  0
    7.7467    0.1669   -0.0000 N   0  0  0  0  0  0  0  0  0  0  0  0
   -6.6502    2.2882   -0.0000 C   0  0  0  0  0  0  0  0  0  0  0  0
   -7.8897    4.5526   -0.0000 C   0  0  0  0  0  0  0  0  0  0  0  0
   10.2971    1.7162   -0.0000 C   0  0  0  0  0  0  0  0  0  0  0  0
    9.0457   -0.5482   -0.0000 C   0  0  0  0  0  0  0  0  0  0  0  0
   -7.9612    1.5851   -0.0000 C   0  0  0  0  0  0  0  0  0  0  0  0
   -9.2245    3.8495   -0.0000 C   0  0  0  0  0  0  0  0  0  0  0  0
   11.5842    2.5147   -0.0000 C   0  0  0  0  0  0  0  0  0  0  0  0
   10.3209    0.2264   -0.0000 C   0  0  0  0  0  0  0  0  0  0  0  0
   -9.2602    2.3597   -0.0000 N   0  0  0  0  0  0  0  0  0  0  0  0
   11.5485    4.0163   -0.0000 C   0  0  0  0  0  0  0  0  0  0  0  0
   12.8833    1.7877   -0.0000 C   0  0  0  0  0  0  0  0  0  0  0  0
  -10.5950    1.6566   -0.0000 C   0  0  0  0  0  0  0  0  0  0  0  0
   12.8118    4.8148   -0.0000 N   0  0  0  0  0  0  0  0  0  0  0  0
   14.1704    2.5743   -0.0000 C   0  0  0  0  0  0  0  0  0  0  0  0
   14.1227    4.0998   -0.0000 C   0  0  0  0  0  0  0  0  0  0  0  0
  1  2  2  0  0  0  0
  2  3  1  0  0  0  0
  2  4  1  0  0  0  0
  3  5  1  0  0  0  0
  4  6  2  0  0  0  0
  4  7  1  0  0  0  0
  5  8  2  0  0  0  0
  5  9  1  0  0  0  0
  6 10  1  0  0  0  0
  7 11  2  0  0  0  0
  8 12  1  0  0  0  0
  9 13  2  0  0  0  0
 10 14  2  0  0  0  0
 12 15  1  0  0  0  0
 12 16  2  0  0  0  0
 14 17  1  0  0  0  0
 15 18  1  0  0  0  0
 16 19  1  0  0  0  0
 17 20  1  0  0  0  0
 18 21  2  0  0  0  0
 18 22  1  0  0  0  0
 20 23  1  0  0  0  0
 20 24  1  0  0  0  0
 21 25  1  0  0  0  0
 22 26  2  0  0  0  0
 23 27  1  0  0  0  0
 24 28  1  0  0  0  0
 25 29  1  0  0  0  0
 25 30  2  0  0  0  0
 27 31  1  0  0  0  0
 29 32  2  0  0  0  0
 29 33  1  0  0  0  0
 31 34  1  0  0  0  0
 32 35  1  0  0  0  0
 33 36  2  0  0  0  0
 35 37  2  0  0  0  0
 11 14  1  0  0  0  0
 13 16  1  0  0  0  0
 26 30  1  0  0  0  0
 28 31  1  0  0  0  0
 36 37  1  0  0  0  0
M  END
>  <MolRegNo>
88797

>  <m>
=

>  <Value>
14300

>  <Unit>
nM

>  <Type>
Ki

>  <pValue>
4.84

>  <Ligand Efficiency>
0

>  <Binding Efficiency>
0

>  <Surface Efficiency>
0

>  <Assay Index>
695726

>  <Assay Category>


>  <Assay Organism>


>  <Target ID>
17045

>  <Target Name>
Cytochrome P450 3A4

>  <Target Organism>
Homo sapiens

>  <Target Description>
Target is a single protein chain

>  <Sequence Accession>
P08684

>  <Reference>
J Med Chem 55 (11), 4896-4933 (2012)

>  <Pubmed ID>
22409598

>  <DOI>
10.1021/jm300065h

$$$$
26465
Actelion Java MolfileCreator 1.0

 33 36  0  0  0  0  0  0  0  0999 V2000
    0.0000   -0.0000   -0.0000 Cl  0  0  0  0  0  0  0  0  0  0  0  0
   -1.2926    0.7899   -0.0000 C   0  0  0  0  0  0  0  0  0  0  0  0
   -2.5731    0.0239   -0.0000 C   0  0  0  0  0  0  0  0  0  0  0  0
   -1.3045    2.2739   -0.0000 C   0  0  0  0  0  0  0  0  0  0  0  0
   -3.8896    0.8138   -0.0000 C   0  0  0  0  0  0  0  0  0  0  0  0
   -2.5851    3.0160   -0.0000 C   0  0  0  0  0  0  0  0  0  0  0  0
   -5.1583    0.0957   -0.0000 N   0  0  0  0  0  0  0  0  0  0  0  0
   -3.9016    2.2979   -0.0000 C   0  0  0  0  0  0  0  0  0  0  0  0
   -6.4867    0.8378   -0.0000 C   0  0  0  0  0  0  0  0  0  0  0  0
   -5.1702   -1.4122   -0.0000 C   0  0  0  0  0  0  0  0  0  0  0  0
   -7.8032    0.0718   -0.0000 C   0  0  0  0  0  0  0  0  0  0  0  0
   -6.4987   -2.1543   -0.0000 C   0  0  0  0  0  0  0  0  0  0  0  0
   -7.8152   -1.3883   -0.0000 N   0  0  0  0  0  0  0  0  0  0  0  0
   -9.1077   -2.1303   -0.0000 C   0  0  0  0  0  0  0  0  0  0  0  0
  -10.4003   -1.3644   -0.0000 C   0  0  0  0  0  0  0  0  0  0  0  0
  -11.7048   -2.1064   -0.0000 C   0  0  0  0  0  0  0  0  0  0  0  0
  -13.0213   -1.3404   -0.0000 N   0  0  0  0  0  0  0  0  0  0  0  0
  -13.5120    0.0359   -0.0000 N   0  0  0  0  0  0  0  0  0  0  0  0
  -14.2181   -2.2620   -0.0000 C   0  0  0  0  0  0  0  0  0  0  0  0
  -14.9362    0.0479   -0.0000 C   0  0  0  0  0  0  0  0  0  0  0  0
  -14.2540   -3.6742   -0.0000 O   0  0  0  0  0  0  0  0  0  0  0  0
  -15.4748   -1.3644   -0.0000 N   0  0  0  0  0  0  0  0  0  0  0  0
  -15.7022    1.3165   -0.0000 C   0  0  0  0  0  0  0  0  0  0  0  0
  -16.7673   -2.1543   -0.0000 C   0  0  0  0  0  0  0  0  0  0  0  0
  -17.2102    1.3285   -0.0000 C   0  0  0  0  0  0  0  0  0  0  0  0
  -18.0599   -1.3404   -0.0000 C   0  0  0  0  0  0  0  0  0  0  0  0
  -19.3764   -2.1303   -0.0000 O   0  0  0  0  0  0  0  0  0  0  0  0
  -20.6570   -1.3165   -0.0000 C   0  0  0  0  0  0  0  0  0  0  0  0
  -21.9735   -2.0346   -0.0000 C   0  0  0  0  0  0  0  0  0  0  0  0
  -20.6690    0.1915   -0.0000 C   0  0  0  0  0  0  0  0  0  0  0  0
  -23.2780   -1.2926   -0.0000 C   0  0  0  0  0  0  0  0  0  0  0  0
  -21.9854    0.9455   -0.0000 C   0  0  0  0  0  0  0  0  0  0  0  0
  -23.2900    0.2154   -0.0000 C   0  0  0  0  0  0  0  0  0  0  0  0
  1  2  1  0  0  0  0
  2  3  2  0  0  0  0
  2  4  1  0  0  0  0
  3  5  1  0  0  0  0
  4  6  2  0  0  0  0
  5  7  1  0  0  0  0
  5  8  2  0  0  0  0
  7  9  1  0  0  0  0
  7 10  1  0  0  0  0
  9 11  1  0  0  0  0
 10 12  1  0  0  0  0
 11 13  1  0  0  0  0
 13 14  1  0  0  0  0
 14 15  1  0  0  0  0
 15 16  1  0  0  0  0
 16 17  1  0  0  0  0
 17 18  1  0  0  0  0
 17 19  1  0  0  0  0
 18 20  2  0  0  0  0
 19 21  2  0  0  0  0
 19 22  1  0  0  0  0
 20 23  1  0  0  0  0
 22 24  1  0  0  0  0
 23 25  1  0  0  0  0
 24 26  1  0  0  0  0
 26 27  1  0  0  0  0
 27 28  1  0  0  0  0
 28 29  2  0  0  0  0
 28 30  1  0  0  0  0
 29 31  1  0  0  0  0
 30 32  2  0  0  0  0
 31 33  2  0  0  0  0
  6  8  1  0  0  0  0
 12 13  1  0  0  0  0
 20 22  1  0  0  0  0
 32 33  1  0  0  0  0
M  END
>  <MolRegNo>
26465

>  <m>
=

>  <Value>
1000

>  <Unit>
nM

>  <Type>
Ki

>  <pValue>
6

>  <Ligand Efficiency>
0

>  <Binding Efficiency>
0

>  <Surface Efficiency>
0

>  <Assay Index>
695715

>  <Assay Category>


>  <Assay Organism>


>  <Target ID>
17045

>  <Target Name>
Cytochrome P450 3A4

>  <Target Organism>
Homo sapiens

>  <Target Description>
Target is a single protein chain

>  <Sequence Accession>
P08684

>  <Reference>
J Med Chem 55 (11), 4896-4933 (2012)

>  <Pubmed ID>
22409598

>  <DOI>
10.1021/jm300065h

$$$$
1585369
Actelion Java MolfileCreator 1.0

 46 49  0  0  0  0  0  0  0  0999 V2000
    0.0000   -0.0000   -0.0000 Cl  0  0  0  0  0  0  0  0  0  0  0  0
  -10.2478    2.5620   -0.0000 S   0  0  0  0  0  0  0  0  0  0  0  0
   -8.8127    2.1943   -0.0000 O   0  0  0  0  0  0  0  0  0  0  0  0
   -9.5243    3.8904   -0.0000 O   0  0  0  0  0  0  0  0  0  0  0  0
  -10.2123    1.0675   -0.0000 C   0  0  0  0  0  0  0  0  0  0  0  0
  -11.5881    3.2855   -0.0000 C   0  0  0  0  0  0  0  0  0  0  0  0
   -8.8957    0.3677   -0.0000 C   0  0  0  0  0  0  0  0  0  0  0  0
   -7.6266    1.1742   -0.0000 O   0  0  0  0  0  0  0  0  0  0  0  0
   -8.8601   -1.1268   -0.0000 N   0  0  0  0  0  0  0  0  0  0  0  0
   -7.4131   -1.4826   -0.0000 C   0  0  0  0  0  0  0  0  0  0  0  0
  -10.0936   -2.0638   -0.0000 C   0  0  0  0  0  0  0  0  0  0  0  0
   -6.8200   -2.8585   -0.0000 C   0  0  0  0  0  0  0  0  0  0  0  0
   -6.5354   -0.2609   -0.0000 C   0  0  0  0  0  0  0  0  0  0  0  0
  -10.0936   -3.5227   -0.0000 C   0  0  0  0  0  0  0  0  0  0  0  0
  -11.4577   -1.3996   -0.0000 C   0  0  0  0  0  0  0  0  0  0  0  0
   -7.5673   -4.2225   -0.0000 N   0  0  0  0  0  0  0  0  0  0  0  0
   -5.3374   -3.0127   -0.0000 C   0  0  0  0  0  0  0  0  0  0  0  0
   -5.0528   -0.4151   -0.0000 C   0  0  0  0  0  0  0  0  0  0  0  0
  -11.4102   -4.2699   -0.0000 N   0  0  0  0  0  0  0  0  0  0  0  0
   -8.9906   -4.4716   -0.0000 C   0  0  0  0  0  0  0  0  0  0  0  0
   -7.1759   -5.6577   -0.0000 C   0  0  0  0  0  0  0  0  0  0  0  0
   -4.4478   -1.7910   -0.0000 C   0  0  0  0  0  0  0  0  0  0  0  0
  -12.7268   -3.5108   -0.0000 C   0  0  0  0  0  0  0  0  0  0  0  0
   -9.3938   -5.9186   -0.0000 O   0  0  0  0  0  0  0  0  0  0  0  0
   -5.7288   -6.0253   -0.0000 C   0  0  0  0  0  0  0  0  0  0  0  0
  -12.7505   -1.9926   -0.0000 O   0  0  0  0  0  0  0  0  0  0  0  0
  -14.0315   -4.2581   -0.0000 C   0  0  0  0  0  0  0  0  0  0  0  0
   -4.5783   -5.0409   -0.0000 N   0  0  0  0  0  0  0  0  0  0  0  0
   -5.1832   -7.4012   -0.0000 C   0  0  0  0  0  0  0  0  0  0  0  0
  -15.3480   -3.4990   -0.0000 N   0  0  0  0  0  0  0  0  0  0  0  0
  -14.0315   -5.7525   -0.0000 C   0  0  0  0  0  0  0  0  0  0  0  0
   -3.3211   -5.8356   -0.0000 N   0  0  0  0  0  0  0  0  0  0  0  0
   -3.6887   -7.3063   -0.0000 C   0  0  0  0  0  0  0  0  0  0  0  0
   -5.8712   -8.7296   -0.0000 C   0  0  0  0  0  0  0  0  0  0  0  0
  -16.6527   -4.2462   -0.0000 C   0  0  0  0  0  0  0  0  0  0  0  0
   -1.9333   -5.2662   -0.0000 C   0  0  0  0  0  0  0  0  0  0  0  0
   -2.8703   -8.5399   -0.0000 C   0  0  0  0  0  0  0  0  0  0  0  0
   -5.0528   -9.9750   -0.0000 C   0  0  0  0  0  0  0  0  0  0  0  0
   -0.7710   -6.2033   -0.0000 C   0  0  0  0  0  0  0  0  0  0  0  0
   -1.7317   -3.7718   -0.0000 C   0  0  0  0  0  0  0  0  0  0  0  0
   -3.5464   -9.8683   -0.0000 C   0  0  0  0  0  0  0  0  0  0  0  0
   -1.0082   -7.6740   -0.0000 C   0  0  0  0  0  0  0  0  0  0  0  0
    0.6168   -5.6458   -0.0000 C   0  0  0  0  0  0  0  0  0  0  0  0
   -0.3440   -3.2024   -0.0000 C   0  0  0  0  0  0  0  0  0  0  0  0
   -1.2454   -9.1566   -0.0000 N   0  0  0  0  0  0  0  0  0  0  0  0
    0.8303   -4.1395   -0.0000 C   0  0  0  0  0  0  0  0  0  0  0  0
  2  3  2  0  0  0  0
  2  4  2  0  0  0  0
  2  5  1  0  0  0  0
  2  6  1  0  0  0  0
  5  7  1  0  0  0  0
  7  8  2  0  0  0  0
  7  9  1  0  0  0  0
  9 10  1  0  0  0  0
  9 11  1  0  0  0  0
 10 12  2  0  0  0  0
 10 13  1  0  0  0  0
 11 14  1  0  0  0  0
 11 15  1  6  0  0  0
 12 16  1  0  0  0  0
 12 17  1  0  0  0  0
 13 18  2  0  0  0  0
 14 19  1  1  0  0  0
 14 20  1  0  0  0  0
 16 21  1  0  0  0  0
 17 22  2  0  0  0  0
 19 23  1  0  0  0  0
 20 24  2  0  0  0  0
 21 25  1  0  0  0  0
 23 26  2  0  0  0  0
 23 27  1  0  0  0  0
 25 28  2  0  0  0  0
 25 29  1  0  0  0  0
 27 30  1  6  0  0  0
 27 31  1  0  0  0  0
 28 32  1  0  0  0  0
 29 33  2  0  0  0  0
 29 34  1  0  0  0  0
 30 35  1  0  0  0  0
 32 36  1  0  0  0  0
 33 37  1  0  0  0  0
 34 38  2  0  0  0  0
 36 39  2  0  0  0  0
 36 40  1  0  0  0  0
 37 41  2  0  0  0  0
 39 42  1  0  0  0  0
 39 43  1  0  0  0  0
 40 44  2  0  0  0  0
 42 45  3  0  0  0  0
 43 46  2  0  0  0  0
 16 20  1  0  0  0  0
 18 22  1  0  0  0  0
 32 33  1  0  0  0  0
 38 41  1  0  0  0  0
 44 46  1  0  0  0  0
M  END
>  <MolRegNo>
1585369

>  <m>
=

>  <Value>
83300

>  <Unit>
nM

>  <Type>
Ki

>  <pValue>
4.08

>  <Ligand Efficiency>
0

>  <Binding Efficiency>
0

>  <Surface Efficiency>
0

>  <Assay Index>
802909

>  <Assay Category>


>  <Assay Organism>
Homo sapiens

>  <Target ID>
17045

>  <Target Name>
Cytochrome P450 3A4

>  <Target Organism>
Homo sapiens

>  <Target Description>
Target is a single protein chain

>  <Sequence Accession>
P08684

>  <Reference>
J Med Chem 56 (20), 7788-7803 (2013)

>  <Pubmed ID>
24093940

>  <DOI>
10.1021/jm400732v

$$$$
1585372
Actelion Java MolfileCreator 1.0

 39 41  0  0  0  0  0  0  0  0999 V2000
    0.0000   -0.0000   -0.0000 Cl  0  0  0  0  0  0  0  0  0  0  0  0
   -8.9904   -5.3942   -0.0000 O   0  0  0  0  0  0  0  0  0  0  0  0
   -8.6118   -3.9274   -0.0000 C   0  0  0  0  0  0  0  0  0  0  0  0
   -7.2160   -3.6553   -0.0000 N   0  0  0  0  0  0  0  0  0  0  0  0
   -9.7356   -2.9574   -0.0000 C   0  0  0  0  0  0  0  0  0  0  0  0
   -6.4944   -2.2713   -0.0000 C   0  0  0  0  0  0  0  0  0  0  0  0
   -6.8256   -5.0867   -0.0000 C   0  0  0  0  0  0  0  0  0  0  0  0
  -11.0487   -3.7026   -0.0000 N   0  0  0  0  0  0  0  0  0  0  0  0
   -9.7593   -1.4787   -0.0000 C   0  0  0  0  0  0  0  0  0  0  0  0
   -7.1095   -0.8754   -0.0000 C   0  0  0  0  0  0  0  0  0  0  0  0
   -5.0157   -2.4250   -0.0000 C   0  0  0  0  0  0  0  0  0  0  0  0
   -5.3824   -5.4534   -0.0000 C   0  0  0  0  0  0  0  0  0  0  0  0
  -12.3618   -2.9455   -0.0000 C   0  0  0  0  0  0  0  0  0  0  0  0
   -8.5527   -0.5205   -0.0000 N   0  0  0  0  0  0  0  0  0  0  0  0
  -11.1197   -0.8162   -0.0000 C   0  0  0  0  0  0  0  0  0  0  0  0
   -6.2341    0.3431   -0.0000 C   0  0  0  0  0  0  0  0  0  0  0  0
   -4.1285   -1.2066   -0.0000 C   0  0  0  0  0  0  0  0  0  0  0  0
   -4.3532   -4.3651   -0.0000 C   0  0  0  0  0  0  0  0  0  0  0  0
   -4.9920   -6.8847   -0.0000 C   0  0  0  0  0  0  0  0  0  0  0  0
  -12.3854   -1.4314   -0.0000 O   0  0  0  0  0  0  0  0  0  0  0  0
  -13.6630   -3.6908   -0.0000 C   0  0  0  0  0  0  0  0  0  0  0  0
   -8.6118    0.9937   -0.0000 C   0  0  0  0  0  0  0  0  0  0  0  0
   -4.7554    0.1893   -0.0000 C   0  0  0  0  0  0  0  0  0  0  0  0
   -4.7791   -2.9100   -0.0000 O   0  0  0  0  0  0  0  0  0  0  0  0
   -2.9100   -4.7200   -0.0000 C   0  0  0  0  0  0  0  0  0  0  0  0
   -3.5607   -7.2515   -0.0000 C   0  0  0  0  0  0  0  0  0  0  0  0
   -6.0567   -7.9376   -0.0000 C   0  0  0  0  0  0  0  0  0  0  0  0
  -14.9761   -2.9337   -0.0000 N   0  0  0  0  0  0  0  0  0  0  0  0
  -13.6630   -5.1813   -0.0000 C   0  0  0  0  0  0  0  0  0  0  0  0
   -7.3461    1.7981   -0.0000 O   0  0  0  0  0  0  0  0  0  0  0  0
   -9.9486    1.7153   -0.0000 C   0  0  0  0  0  0  0  0  0  0  0  0
   -3.8919    1.4077   -0.0000 C   0  0  0  0  0  0  0  0  0  0  0  0
   -3.7381   -1.8217   -0.0000 C   0  0  0  0  0  0  0  0  0  0  0  0
   -2.5078   -6.1631   -0.0000 C   0  0  0  0  0  0  0  0  0  0  0  0
   -3.1703   -8.6710   -0.0000 C   0  0  0  0  0  0  0  0  0  0  0  0
   -5.6781   -9.3689   -0.0000 C   0  0  0  0  0  0  0  0  0  0  0  0
  -16.2773   -3.6790   -0.0000 C   0  0  0  0  0  0  0  0  0  0  0  0
   -3.0165    2.6261   -0.0000 N   0  0  0  0  0  0  0  0  0  0  0  0
   -4.2231   -9.7238   -0.0000 C   0  0  0  0  0  0  0  0  0  0  0  0
  2  3  2  0  0  0  0
  3  4  1  0  0  0  0
  3  5  1  0  0  0  0
  4  6  1  0  0  0  0
  4  7  1  0  0  0  0
  5  8  1  1  0  0  0
  5  9  1  0  0  0  0
  6 10  2  0  0  0  0
  6 11  1  0  0  0  0
  7 12  1  0  0  0  0
  8 13  1  0  0  0  0
  9 14  1  0  0  0  0
  9 15  1  6  0  0  0
 10 16  1  0  0  0  0
 11 17  2  0  0  0  0
 12 18  2  0  0  0  0
 12 19  1  0  0  0  0
 13 20  2  0  0  0  0
 13 21  1  0  0  0  0
 14 22  1  0  0  0  0
 16 23  2  0  0  0  0
 18 24  1  0  0  0  0
 18 25  1  0  0  0  0
 19 26  1  0  0  0  0
 19 27  2  0  0  0  0
 21 28  1  6  0  0  0
 21 29  1  0  0  0  0
 22 30  2  0  0  0  0
 22 31  1  0  0  0  0
 23 32  1  0  0  0  0
 24 33  1  0  0  0  0
 25 34  2  0  0  0  0
 26 35  2  0  0  0  0
 27 36  1  0  0  0  0
 28 37  1  0  0  0  0
 32 38  3  0  0  0  0
 35 39  1  0  0  0  0
 10 14  1  0  0  0  0
 17 23  1  0  0  0  0
 26 34  1  0  0  0  0
 36 39  2  0  0  0  0
M  END
>  <MolRegNo>
1585372

>  <m>
=

>  <Value>
50000

>  <Unit>
nM

>  <Type>
Ki

>  <pValue>
4.3

>  <Ligand Efficiency>
0

>  <Binding Efficiency>
0

>  <Surface Efficiency>
0

>  <Assay Index>
802909

>  <Assay Category>


>  <Assay Organism>
Homo sapiens

>  <Target ID>
17045

>  <Target Name>
Cytochrome P450 3A4

>  <Target Organism>
Homo sapiens

>  <Target Description>
Target is a single protein chain

>  <Sequence Accession>
P08684

>  <Reference>
J Med Chem 56 (20), 7788-7803 (2013)

>  <Pubmed ID>
24093940

>  <DOI>
10.1021/jm400732v

$$$$
1585371
Actelion Java MolfileCreator 1.0

 42 44  0  0  0  0  0  0  0  0999 V2000
    0.0000   -0.0000   -0.0000 Cl  0  0  0  0  0  0  0  0  0  0  0  0
   -9.3025    3.1325   -0.0000 S   0  0  0  0  0  0  0  0  0  0  0  0
   -7.8668    2.7647   -0.0000 O   0  0  0  0  0  0  0  0  0  0  0  0
   -8.5787    4.4614   -0.0000 O   0  0  0  0  0  0  0  0  0  0  0  0
   -9.2669    1.6374   -0.0000 C   0  0  0  0  0  0  0  0  0  0  0  0
  -10.6433    3.8563   -0.0000 C   0  0  0  0  0  0  0  0  0  0  0  0
   -7.9499    0.9374   -0.0000 C   0  0  0  0  0  0  0  0  0  0  0  0
   -6.6803    1.7442   -0.0000 O   0  0  0  0  0  0  0  0  0  0  0  0
   -7.9143   -0.5577   -0.0000 N   0  0  0  0  0  0  0  0  0  0  0  0
   -6.4667   -0.9136   -0.0000 C   0  0  0  0  0  0  0  0  0  0  0  0
   -9.1483   -1.4951   -0.0000 C   0  0  0  0  0  0  0  0  0  0  0  0
   -5.8734   -2.2900   -0.0000 C   0  0  0  0  0  0  0  0  0  0  0  0
   -5.5886    0.3085   -0.0000 C   0  0  0  0  0  0  0  0  0  0  0  0
   -9.1483   -2.9545   -0.0000 C   0  0  0  0  0  0  0  0  0  0  0  0
  -10.5128   -0.8306   -0.0000 C   0  0  0  0  0  0  0  0  0  0  0  0
   -6.6209   -3.6546   -0.0000 N   0  0  0  0  0  0  0  0  0  0  0  0
   -4.3902   -2.4443   -0.0000 C   0  0  0  0  0  0  0  0  0  0  0  0
   -4.1055    0.1543   -0.0000 C   0  0  0  0  0  0  0  0  0  0  0  0
  -10.4654   -3.7020   -0.0000 N   0  0  0  0  0  0  0  0  0  0  0  0
   -8.0448   -3.9037   -0.0000 C   0  0  0  0  0  0  0  0  0  0  0  0
   -6.2294   -5.0903   -0.0000 C   0  0  0  0  0  0  0  0  0  0  0  0
   -3.5003   -1.2221   -0.0000 C   0  0  0  0  0  0  0  0  0  0  0  0
   -3.2393    1.3764   -0.0000 C   0  0  0  0  0  0  0  0  0  0  0  0
  -11.7824   -2.9426   -0.0000 C   0  0  0  0  0  0  0  0  0  0  0  0
   -8.4482   -5.3513   -0.0000 O   0  0  0  0  0  0  0  0  0  0  0  0
   -4.7818   -5.4581   -0.0000 C   0  0  0  0  0  0  0  0  0  0  0  0
   -2.3612    2.5985   -0.0000 N   0  0  0  0  0  0  0  0  0  0  0  0
  -11.8062   -1.4239   -0.0000 O   0  0  0  0  0  0  0  0  0  0  0  0
  -13.0876   -3.6902   -0.0000 C   0  0  0  0  0  0  0  0  0  0  0  0
   -4.3902   -6.8938   -0.0000 C   0  0  0  0  0  0  0  0  0  0  0  0
   -3.7495   -4.3665   -0.0000 C   0  0  0  0  0  0  0  0  0  0  0  0
  -14.4047   -2.9308   -0.0000 N   0  0  0  0  0  0  0  0  0  0  0  0
  -13.0876   -5.1852   -0.0000 C   0  0  0  0  0  0  0  0  0  0  0  0
   -2.9545   -7.2617   -0.0000 C   0  0  0  0  0  0  0  0  0  0  0  0
   -5.4581   -7.9499   -0.0000 C   0  0  0  0  0  0  0  0  0  0  0  0
   -2.3019   -4.7225   -0.0000 C   0  0  0  0  0  0  0  0  0  0  0  0
   -4.1767   -2.9070   -0.0000 C   0  0  0  0  0  0  0  0  0  0  0  0
  -15.7099   -3.6783   -0.0000 C   0  0  0  0  0  0  0  0  0  0  0  0
   -1.9103   -6.1701   -0.0000 C   0  0  0  0  0  0  0  0  0  0  0  0
   -2.5629   -8.6855   -0.0000 C   0  0  0  0  0  0  0  0  0  0  0  0
   -5.0784   -9.3856   -0.0000 C   0  0  0  0  0  0  0  0  0  0  0  0
   -3.6190   -9.7416   -0.0000 C   0  0  0  0  0  0  0  0  0  0  0  0
  2  3  2  0  0  0  0
  2  4  2  0  0  0  0
  2  5  1  0  0  0  0
  2  6  1  0  0  0  0
  5  7  1  0  0  0  0
  7  8  2  0  0  0  0
  7  9  1  0  0  0  0
  9 10  1  0  0  0  0
  9 11  1  0  0  0  0
 10 12  2  0  0  0  0
 10 13  1  0  0  0  0
 11 14  1  0  0  0  0
 11 15  1  6  0  0  0
 12 16  1  0  0  0  0
 12 17  1  0  0  0  0
 13 18  2  0  0  0  0
 14 19  1  1  0  0  0
 14 20  1  0  0  0  0
 16 21  1  0  0  0  0
 17 22  2  0  0  0  0
 18 23  1  0  0  0  0
 19 24  1  0  0  0  0
 20 25  2  0  0  0  0
 21 26  1  0  0  0  0
 23 27  3  0  0  0  0
 24 28  2  0  0  0  0
 24 29  1  0  0  0  0
 26 30  1  0  0  0  0
 26 31  2  0  0  0  0
 29 32  1  6  0  0  0
 29 33  1  0  0  0  0
 30 34  1  0  0  0  0
 30 35  2  0  0  0  0
 31 36  1  0  0  0  0
 31 37  1  0  0  0  0
 32 38  1  0  0  0  0
 34 39  1  0  0  0  0
 34 40  2  0  0  0  0
 35 41  1  0  0  0  0
 40 42  1  0  0  0  0
 16 20  1  0  0  0  0
 18 22  1  0  0  0  0
 36 39  2  0  0  0  0
 41 42  2  0  0  0  0
M  END
>  <MolRegNo>
1585371

>  <m>
=

>  <Value>
50000

>  <Unit>
nM

>  <Type>
Ki

>  <pValue>
4.3

>  <Ligand Efficiency>
0

>  <Binding Efficiency>
0

>  <Surface Efficiency>
0

>  <Assay Index>
802909

>  <Assay Category>


>  <Assay Organism>
Homo sapiens

>  <Target ID>
17045

>  <Target Name>
Cytochrome P450 3A4

>  <Target Organism>
Homo sapiens

>  <Target Description>
Target is a single protein chain

>  <Sequence Accession>
P08684

>  <Reference>
J Med Chem 56 (20), 7788-7803 (2013)

>  <Pubmed ID>
24093940

>  <DOI>
10.1021/jm400732v

$$$$
1585370
Actelion Java MolfileCreator 1.0

 43 45  0  0  0  0  0  0  0  0999 V2000
    0.0000   -0.0000   -0.0000 Cl  0  0  0  0  0  0  0  0  0  0  0  0
   -9.6777    3.0361   -0.0000 S   0  0  0  0  0  0  0  0  0  0  0  0
   -8.2426    2.6685   -0.0000 O   0  0  0  0  0  0  0  0  0  0  0  0
   -8.9542    4.3645   -0.0000 O   0  0  0  0  0  0  0  0  0  0  0  0
   -9.6421    1.5418   -0.0000 C   0  0  0  0  0  0  0  0  0  0  0  0
  -11.0179    3.7596   -0.0000 C   0  0  0  0  0  0  0  0  0  0  0  0
   -8.3257    0.8421   -0.0000 C   0  0  0  0  0  0  0  0  0  0  0  0
   -7.0567    1.6485   -0.0000 O   0  0  0  0  0  0  0  0  0  0  0  0
   -8.2901   -0.6523   -0.0000 N   0  0  0  0  0  0  0  0  0  0  0  0
   -6.8432   -1.0081   -0.0000 C   0  0  0  0  0  0  0  0  0  0  0  0
   -9.5235   -1.5892   -0.0000 C   0  0  0  0  0  0  0  0  0  0  0  0
   -6.2502   -2.3838   -0.0000 C   0  0  0  0  0  0  0  0  0  0  0  0
   -5.9655    0.2135   -0.0000 C   0  0  0  0  0  0  0  0  0  0  0  0
   -9.5235   -3.0480   -0.0000 C   0  0  0  0  0  0  0  0  0  0  0  0
  -10.8874   -0.9251   -0.0000 C   0  0  0  0  0  0  0  0  0  0  0  0
   -6.9974   -3.7477   -0.0000 N   0  0  0  0  0  0  0  0  0  0  0  0
   -4.7677   -2.5380   -0.0000 C   0  0  0  0  0  0  0  0  0  0  0  0
   -4.4831    0.0593   -0.0000 C   0  0  0  0  0  0  0  0  0  0  0  0
  -10.8400   -3.7952   -0.0000 N   0  0  0  0  0  0  0  0  0  0  0  0
   -8.4205   -3.9968   -0.0000 C   0  0  0  0  0  0  0  0  0  0  0  0
   -6.6060   -5.1828   -0.0000 C   0  0  0  0  0  0  0  0  0  0  0  0
   -3.8782   -1.3165   -0.0000 C   0  0  0  0  0  0  0  0  0  0  0  0
   -3.6173    1.2809   -0.0000 C   0  0  0  0  0  0  0  0  0  0  0  0
  -12.1564   -3.0361   -0.0000 C   0  0  0  0  0  0  0  0  0  0  0  0
   -8.8238   -5.4437   -0.0000 O   0  0  0  0  0  0  0  0  0  0  0  0
   -5.1591   -5.5504   -0.0000 C   0  0  0  0  0  0  0  0  0  0  0  0
   -2.7396    2.5143   -0.0000 N   0  0  0  0  0  0  0  0  0  0  0  0
  -12.1801   -1.5181   -0.0000 O   0  0  0  0  0  0  0  0  0  0  0  0
  -13.4610   -3.7833   -0.0000 C   0  0  0  0  0  0  0  0  0  0  0  0
   -4.1273   -4.4593   -0.0000 C   0  0  0  0  0  0  0  0  0  0  0  0
   -4.7677   -6.9855   -0.0000 C   0  0  0  0  0  0  0  0  0  0  0  0
  -14.7775   -3.0243   -0.0000 N   0  0  0  0  0  0  0  0  0  0  0  0
  -13.4610   -5.2777   -0.0000 C   0  0  0  0  0  0  0  0  0  0  0  0
   -4.5542   -3.0006   -0.0000 O   0  0  0  0  0  0  0  0  0  0  0  0
   -2.6803   -4.8151   -0.0000 C   0  0  0  0  0  0  0  0  0  0  0  0
   -3.3326   -7.3532   -0.0000 C   0  0  0  0  0  0  0  0  0  0  0  0
   -5.8351   -8.0410   -0.0000 C   0  0  0  0  0  0  0  0  0  0  0  0
  -16.0821   -3.7715   -0.0000 C   0  0  0  0  0  0  0  0  0  0  0  0
   -3.5105   -1.9094   -0.0000 C   0  0  0  0  0  0  0  0  0  0  0  0
   -2.2771   -6.2620   -0.0000 C   0  0  0  0  0  0  0  0  0  0  0  0
   -2.9413   -8.7763   -0.0000 C   0  0  0  0  0  0  0  0  0  0  0  0
   -5.4556   -9.4761   -0.0000 C   0  0  0  0  0  0  0  0  0  0  0  0
   -3.9968   -9.8319   -0.0000 C   0  0  0  0  0  0  0  0  0  0  0  0
  2  3  2  0  0  0  0
  2  4  2  0  0  0  0
  2  5  1  0  0  0  0
  2  6  1  0  0  0  0
  5  7  1  0  0  0  0
  7  8  2  0  0  0  0
  7  9  1  0  0  0  0
  9 10  1  0  0  0  0
  9 11  1  0  0  0  0
 10 12  2  0  0  0  0
 10 13  1  0  0  0  0
 11 14  1  0  0  0  0
 11 15  1  6  0  0  0
 12 16  1  0  0  0  0
 12 17  1  0  0  0  0
 13 18  2  0  0  0  0
 14 19  1  1  0  0  0
 14 20  1  0  0  0  0
 16 21  1  0  0  0  0
 17 22  2  0  0  0  0
 18 23  1  0  0  0  0
 19 24  1  0  0  0  0
 20 25  2  0  0  0  0
 21 26  1  0  0  0  0
 23 27  3  0  0  0  0
 24 28  2  0  0  0  0
 24 29  1  0  0  0  0
 26 30  2  0  0  0  0
 26 31  1  0  0  0  0
 29 32  1  6  0  0  0
 29 33  1  0  0  0  0
 30 34  1  0  0  0  0
 30 35  1  0  0  0  0
 31 36  1  0  0  0  0
 31 37  2  0  0  0  0
 32 38  1  0  0  0  0
 34 39  1  0  0  0  0
 35 40  2  0  0  0  0
 36 41  2  0  0  0  0
 37 42  1  0  0  0  0
 41 43  1  0  0  0  0
 16 20  1  0  0  0  0
 18 22  1  0  0  0  0
 36 40  1  0  0  0  0
 42 43  2  0  0  0  0
M  END
>  <MolRegNo>
1585370

>  <m>
=

>  <Value>
50000

>  <Unit>
nM

>  <Type>
Ki

>  <pValue>
4.3

>  <Ligand Efficiency>
0

>  <Binding Efficiency>
0

>  <Surface Efficiency>
0

>  <Assay Index>
802909

>  <Assay Category>


>  <Assay Organism>
Homo sapiens

>  <Target ID>
17045

>  <Target Name>
Cytochrome P450 3A4

>  <Target Organism>
Homo sapiens

>  <Target Description>
Target is a single protein chain

>  <Sequence Accession>
P08684

>  <Reference>
J Med Chem 56 (20), 7788-7803 (2013)

>  <Pubmed ID>
24093940

>  <DOI>
10.1021/jm400732v

$$$$
1585373
Actelion Java MolfileCreator 1.0

 38 40  0  0  0  0  0  0  0  0999 V2000
    0.0000   -0.0000   -0.0000 Cl  0  0  0  0  0  0  0  0  0  0  0  0
   -8.8983   -5.2065   -0.0000 O   0  0  0  0  0  0  0  0  0  0  0  0
   -8.5197   -3.7392   -0.0000 C   0  0  0  0  0  0  0  0  0  0  0  0
   -7.1234   -3.4670   -0.0000 N   0  0  0  0  0  0  0  0  0  0  0  0
   -9.6438   -2.7689   -0.0000 C   0  0  0  0  0  0  0  0  0  0  0  0
   -6.4016   -2.0826   -0.0000 C   0  0  0  0  0  0  0  0  0  0  0  0
   -6.7329   -4.8988   -0.0000 C   0  0  0  0  0  0  0  0  0  0  0  0
  -10.9572   -3.5144   -0.0000 N   0  0  0  0  0  0  0  0  0  0  0  0
   -9.6675   -1.2898   -0.0000 C   0  0  0  0  0  0  0  0  0  0  0  0
   -7.0169   -0.6863   -0.0000 C   0  0  0  0  0  0  0  0  0  0  0  0
   -4.9225   -2.2364   -0.0000 C   0  0  0  0  0  0  0  0  0  0  0  0
   -5.2893   -5.2656   -0.0000 C   0  0  0  0  0  0  0  0  0  0  0  0
  -12.2707   -2.7571   -0.0000 C   0  0  0  0  0  0  0  0  0  0  0  0
   -8.4605   -0.3313   -0.0000 N   0  0  0  0  0  0  0  0  0  0  0  0
  -11.0282   -0.6271   -0.0000 C   0  0  0  0  0  0  0  0  0  0  0  0
   -6.1413    0.5325   -0.0000 C   0  0  0  0  0  0  0  0  0  0  0  0
   -4.0350   -1.0176   -0.0000 C   0  0  0  0  0  0  0  0  0  0  0  0
   -4.8988   -6.6974   -0.0000 C   0  0  0  0  0  0  0  0  0  0  0  0
   -4.2598   -4.1770   -0.0000 C   0  0  0  0  0  0  0  0  0  0  0  0
  -12.2944   -1.2425   -0.0000 O   0  0  0  0  0  0  0  0  0  0  0  0
  -13.5723   -3.5025   -0.0000 C   0  0  0  0  0  0  0  0  0  0  0  0
   -8.5197    1.1833   -0.0000 C   0  0  0  0  0  0  0  0  0  0  0  0
   -4.6622    0.3787   -0.0000 C   0  0  0  0  0  0  0  0  0  0  0  0
   -3.4670   -7.0642   -0.0000 C   0  0  0  0  0  0  0  0  0  0  0  0
   -5.9638   -7.7505   -0.0000 C   0  0  0  0  0  0  0  0  0  0  0  0
   -2.8162   -4.5320   -0.0000 C   0  0  0  0  0  0  0  0  0  0  0  0
   -4.6858   -2.7216   -0.0000 C   0  0  0  0  0  0  0  0  0  0  0  0
  -14.8858   -2.7452   -0.0000 N   0  0  0  0  0  0  0  0  0  0  0  0
  -13.5723   -4.9935   -0.0000 C   0  0  0  0  0  0  0  0  0  0  0  0
   -7.2536    1.9879   -0.0000 O   0  0  0  0  0  0  0  0  0  0  0  0
   -9.8568    1.9051   -0.0000 C   0  0  0  0  0  0  0  0  0  0  0  0
   -3.7984    1.5974   -0.0000 C   0  0  0  0  0  0  0  0  0  0  0  0
   -2.4257   -5.9756   -0.0000 C   0  0  0  0  0  0  0  0  0  0  0  0
   -3.0765   -8.4842   -0.0000 C   0  0  0  0  0  0  0  0  0  0  0  0
   -5.5851   -9.1823   -0.0000 C   0  0  0  0  0  0  0  0  0  0  0  0
  -16.1874   -3.4907   -0.0000 C   0  0  0  0  0  0  0  0  0  0  0  0
   -2.9227    2.8162   -0.0000 N   0  0  0  0  0  0  0  0  0  0  0  0
   -4.1297   -9.5373   -0.0000 C   0  0  0  0  0  0  0  0  0  0  0  0
  2  3  2  0  0  0  0
  3  4  1  0  0  0  0
  3  5  1  0  0  0  0
  4  6  1  0  0  0  0
  4  7  1  0  0  0  0
  5  8  1  1  0  0  0
  5  9  1  0  0  0  0
  6 10  2  0  0  0  0
  6 11  1  0  0  0  0
  7 12  1  0  0  0  0
  8 13  1  0  0  0  0
  9 14  1  0  0  0  0
  9 15  1  6  0  0  0
 10 16  1  0  0  0  0
 11 17  2  0  0  0  0
 12 18  1  0  0  0  0
 12 19  2  0  0  0  0
 13 20  2  0  0  0  0
 13 21  1  0  0  0  0
 14 22  1  0  0  0  0
 16 23  2  0  0  0  0
 18 24  1  0  0  0  0
 18 25  2  0  0  0  0
 19 26  1  0  0  0  0
 19 27  1  0  0  0  0
 21 28  1  6  0  0  0
 21 29  1  0  0  0  0
 22 30  2  0  0  0  0
 22 31  1  0  0  0  0
 23 32  1  0  0  0  0
 24 33  1  0  0  0  0
 24 34  2  0  0  0  0
 25 35  1  0  0  0  0
 28 36  1  0  0  0  0
 32 37  3  0  0  0  0
 34 38  1  0  0  0  0
 10 14  1  0  0  0  0
 17 23  1  0  0  0  0
 26 33  2  0  0  0  0
 35 38  2  0  0  0  0
M  END
>  <MolRegNo>
1585373

>  <m>
=

>  <Value>
16700

>  <Unit>
nM

>  <Type>
Ki

>  <pValue>
4.78

>  <Ligand Efficiency>
0

>  <Binding Efficiency>
0

>  <Surface Efficiency>
0

>  <Assay Index>
802909

>  <Assay Category>


>  <Assay Organism>
Homo sapiens

>  <Target ID>
17045

>  <Target Name>
Cytochrome P450 3A4

>  <Target Organism>
Homo sapiens

>  <Target Description>
Target is a single protein chain

>  <Sequence Accession>
P08684

>  <Reference>
J Med Chem 56 (20), 7788-7803 (2013)

>  <Pubmed ID>
24093940

>  <DOI>
10.1021/jm400732v

$$$$
1793370
Actelion Java MolfileCreator 1.0

 33 36  0  0  0  0  0  0  0  0999 V2000
    0.0000   -0.0000   -0.0000 Cl  0  0  0  0  0  0  0  0  0  0  0  0
    1.2803    0.7587   -0.0000 C   0  0  0  0  0  0  0  0  0  0  0  0
    2.5725    0.0237   -0.0000 C   0  0  0  0  0  0  0  0  0  0  0  0
    1.2685    2.2643   -0.0000 C   0  0  0  0  0  0  0  0  0  0  0  0
    3.8528    0.7824   -0.0000 N   0  0  0  0  0  0  0  0  0  0  0  0
    2.5369    3.0349   -0.0000 C   0  0  0  0  0  0  0  0  0  0  0  0
    3.8410    2.2998   -0.0000 C   0  0  0  0  0  0  0  0  0  0  0  0
    2.5251    4.5404   -0.0000 C   0  0  0  0  0  0  0  0  0  0  0  0
    1.2092    5.2991   -0.0000 C   0  0  0  0  0  0  0  0  0  0  0  0
    3.8054    5.3110   -0.0000 C   0  0  0  0  0  0  0  0  0  0  0  0
    1.1973    6.8166   -0.0000 N   0  0  0  0  0  0  0  0  0  0  0  0
    3.7936    6.8166   -0.0000 C   0  0  0  0  0  0  0  0  0  0  0  0
    2.4777    7.5753   -0.0000 C   0  0  0  0  0  0  0  0  0  0  0  0
    5.0739    7.5753   -0.0000 C   0  0  0  0  0  0  0  0  0  0  0  0
    2.4658    9.0808   -0.0000 C   0  0  0  0  0  0  0  0  0  0  0  0
    5.0620    9.0808   -0.0000 O   0  0  0  0  0  0  0  0  0  0  0  0
    6.3661    6.8403   -0.0000 N   0  0  0  0  0  0  0  0  0  0  0  0
    3.7580    9.8396   -0.0000 N   0  0  0  0  0  0  0  0  0  0  0  0
    1.1381    9.8396   -0.0000 C   0  0  0  0  0  0  0  0  0  0  0  0
    7.6464    7.6108   -0.0000 C   0  0  0  0  0  0  0  0  0  0  0  0
    3.7461   11.3570   -0.0000 C   0  0  0  0  0  0  0  0  0  0  0  0
    1.1262   11.3451   -0.0000 C   0  0  0  0  0  0  0  0  0  0  0  0
    8.9386    6.8758   -0.0000 C   0  0  0  0  0  0  0  0  0  0  0  0
    2.4065   12.1157   -0.0000 C   0  0  0  0  0  0  0  0  0  0  0  0
   10.2308    7.6464   -0.0000 N   0  0  0  0  0  0  0  0  0  0  0  0
    8.9267    5.3821   -0.0000 C   0  0  0  0  0  0  0  0  0  0  0  0
   11.5230    6.8995   -0.0000 C   0  0  0  0  0  0  0  0  0  0  0  0
   10.2189    4.6471   -0.0000 C   0  0  0  0  0  0  0  0  0  0  0  0
   12.8151    7.6583   -0.0000 O   0  0  0  0  0  0  0  0  0  0  0  0
   11.5111    5.4058   -0.0000 C   0  0  0  0  0  0  0  0  0  0  0  0
   12.8033    9.1638   -0.0000 C   0  0  0  0  0  0  0  0  0  0  0  0
   12.7914    4.6708   -0.0000 O   0  0  0  0  0  0  0  0  0  0  0  0
   12.7796    3.1890   -0.0000 C   0  0  0  0  0  0  0  0  0  0  0  0
  1  2  1  0  0  0  0
  2  3  2  0  0  0  0
  2  4  1  0  0  0  0
  3  5  1  0  0  0  0
  4  6  2  0  0  0  0
  5  7  2  0  0  0  0
  6  8  1  0  0  0  0
  8  9  2  0  0  0  0
  8 10  1  0  0  0  0
  9 11  1  0  0  0  0
 10 12  2  0  0  0  0
 11 13  2  0  0  0  0
 12 14  1  0  0  0  0
 13 15  1  0  0  0  0
 14 16  2  0  0  0  0
 14 17  1  0  0  0  0
 15 18  2  0  0  0  0
 15 19  1  0  0  0  0
 17 20  1  0  0  0  0
 18 21  1  0  0  0  0
 19 22  2  0  0  0  0
 20 23  1  0  0  0  0
 21 24  2  0  0  0  0
 23 25  2  0  0  0  0
 23 26  1  0  0  0  0
 25 27  1  0  0  0  0
 26 28  2  0  0  0  0
 27 29  1  0  0  0  0
 27 30  2  0  0  0  0
 29 31  1  0  0  0  0
 30 32  1  0  0  0  0
 32 33  1  0  0  0  0
  6  7  1  0  0  0  0
 12 13  1  0  0  0  0
 22 24  1  0  0  0  0
 28 30  1  0  0  0  0
M  END
>  <MolRegNo>
1793370

>  <m>
=

>  <Value>
9500

>  <Unit>
nM

>  <Type>
Ki

>  <pValue>
5.02

>  <Ligand Efficiency>
0

>  <Binding Efficiency>
0

>  <Surface Efficiency>
0

>  <Assay Index>
878683

>  <Assay Category>


>  <Assay Organism>
Homo sapiens

>  <Target ID>
17045

>  <Target Name>
Cytochrome P450 3A4

>  <Target Organism>
Homo sapiens

>  <Target Description>
Target is a single protein chain

>  <Sequence Accession>
P08684

>  <Reference>
Bioorg Med Chem Lett 24 (20), 4884-4890 (2014)

>  <Pubmed ID>
25248679

>  <DOI>
10.1016/j.bmcl.2014.08.041

$$$$
1037721
Actelion Java MolfileCreator 1.0

 31 34  0  0  0  0  0  0  0  0999 V2000
    0.0000   -0.0000   -0.0000 S   0  0  0  0  0  0  0  0  0  0  0  0
   -0.4734    1.4319   -0.0000 C   0  0  0  0  0  0  0  0  0  0  0  0
    1.4792    0.0118   -0.0000 C   0  0  0  0  0  0  0  0  0  0  0  0
    0.7219    2.3313   -0.0000 C   0  0  0  0  0  0  0  0  0  0  0  0
   -1.7869    2.1893   -0.0000 C   0  0  0  0  0  0  0  0  0  0  0  0
    1.9289    1.4437   -0.0000 C   0  0  0  0  0  0  0  0  0  0  0  0
    0.7100    3.8342   -0.0000 N   0  0  0  0  0  0  0  0  0  0  0  0
   -1.7988    3.6922   -0.0000 O   0  0  0  0  0  0  0  0  0  0  0  0
   -3.0887    1.4556   -0.0000 N   0  0  0  0  0  0  0  0  0  0  0  0
    1.9881    4.5916   -0.0000 C   0  0  0  0  0  0  0  0  0  0  0  0
   -4.3904    2.2129   -0.0000 C   0  0  0  0  0  0  0  0  0  0  0  0
    1.9763    6.0945   -0.0000 C   0  0  0  0  0  0  0  0  0  0  0  0
   -4.3904    3.7159   -0.0000 C   0  0  0  0  0  0  0  0  0  0  0  0
   -5.6803    1.4792   -0.0000 C   0  0  0  0  0  0  0  0  0  0  0  0
    0.6627    6.8518   -0.0000 C   0  0  0  0  0  0  0  0  0  0  0  0
    3.2543    6.8637   -0.0000 C   0  0  0  0  0  0  0  0  0  0  0  0
   -5.6921    4.4732   -0.0000 C   0  0  0  0  0  0  0  0  0  0  0  0
   -6.9820    2.2248   -0.0000 C   0  0  0  0  0  0  0  0  0  0  0  0
    0.6509    8.3666   -0.0000 C   0  0  0  0  0  0  0  0  0  0  0  0
   -0.6390    6.1063   -0.0000 C   0  0  0  0  0  0  0  0  0  0  0  0
    3.2307    8.3784   -0.0000 C   0  0  0  0  0  0  0  0  0  0  0  0
   -6.9939    3.7395   -0.0000 C   0  0  0  0  0  0  0  0  0  0  0  0
    1.9289    9.1240   -0.0000 N   0  0  0  0  0  0  0  0  0  0  0  0
   -0.6509    9.1121   -0.0000 C   0  0  0  0  0  0  0  0  0  0  0  0
   -1.9408    6.8637   -0.0000 C   0  0  0  0  0  0  0  0  0  0  0  0
   -8.2956    4.4969   -0.0000 O   0  0  0  0  0  0  0  0  0  0  0  0
   -1.9526    8.3784   -0.0000 C   0  0  0  0  0  0  0  0  0  0  0  0
   -9.5973    3.7632   -0.0000 C   0  0  0  0  0  0  0  0  0  0  0  0
  -10.8991    4.5206   -0.0000 F   0  0  0  0  0  0  0  0  0  0  0  0
  -10.3665    2.4851   -0.0000 F   0  0  0  0  0  0  0  0  0  0  0  0
   -8.8755    2.4851   -0.0000 F   0  0  0  0  0  0  0  0  0  0  0  0
  1  2  1  0  0  0  0
  1  3  1  0  0  0  0
  2  4  2  0  0  0  0
  2  5  1  0  0  0  0
  3  6  2  0  0  0  0
  4  7  1  0  0  0  0
  5  8  2  0  0  0  0
  5  9  1  0  0  0  0
  7 10  1  0  0  0  0
  9 11  1  0  0  0  0
 10 12  1  0  0  0  0
 11 13  2  0  0  0  0
 11 14  1  0  0  0  0
 12 15  1  0  0  0  0
 12 16  2  0  0  0  0
 13 17  1  0  0  0  0
 14 18  2  0  0  0  0
 15 19  1  0  0  0  0
 15 20  2  0  0  0  0
 16 21  1  0  0  0  0
 17 22  2  0  0  0  0
 19 23  1  0  0  0  0
 19 24  2  0  0  0  0
 20 25  1  0  0  0  0
 22 26  1  0  0  0  0
 24 27  1  0  0  0  0
 26 28  1  0  0  0  0
 28 29  1  0  0  0  0
 28 30  1  0  0  0  0
 28 31  1  0  0  0  0
  4  6  1  0  0  0  0
 18 22  1  0  0  0  0
 21 23  2  0  0  0  0
 25 27  2  0  0  0  0
M  END
>  <MolRegNo>
1037721

>  <m>
=

>  <Value>
24000

>  <Unit>
nM

>  <Type>
Ki

>  <pValue>
4.62

>  <Ligand Efficiency>
0

>  <Binding Efficiency>
0

>  <Surface Efficiency>
0

>  <Assay Index>
928810

>  <Assay Category>


>  <Assay Organism>
Homo sapiens

>  <Target ID>
17045

>  <Target Name>
Cytochrome P450 3A4

>  <Target Organism>
Homo sapiens

>  <Target Description>
Target is a single protein chain

>  <Sequence Accession>
P08684

>  <Reference>
Drug Metab Dispos 39 (2), 345-350 (2011)

>  <Pubmed ID>
21068193

>  <DOI>
10.1124/dmd.110.034074

$$$$
1925064
Actelion Java MolfileCreator 1.0

 30 32  0  0  1  0  0  0  0  0999 V2000
    0.0000   -0.0000   -0.0000 O   0  0  0  0  0  0  0  0  0  0  0  0
   -0.0475   -1.4859   -0.0000 C   0  0  0  0  0  0  0  0  0  0  0  0
    1.2244   -2.2586   -0.0000 O   0  0  0  0  0  0  0  0  0  0  0  0
   -1.3789   -2.1991   -0.0000 N   0  0  0  0  0  0  0  0  0  0  0  0
    2.5439   -1.5216   -0.0000 C   0  0  0  0  0  0  0  0  0  0  0  0
   -2.6746   -1.4027   -0.0000 C   0  0  0  0  0  0  0  0  0  0  0  0
    3.8396   -2.2704   -0.0000 C   0  0  0  0  0  0  0  0  0  0  0  0
    2.5320   -0.0357   -0.0000 C   0  0  0  0  0  0  0  0  0  0  0  0
   -4.0179   -2.1159   -0.0000 C   0  0  0  0  0  0  0  0  0  0  0  0
   -2.6508    0.1070   -0.0000 C   0  0  0  0  0  0  0  0  0  0  0  0
    3.8277   -3.7563   -0.0000 O   0  0  0  0  0  0  0  0  0  0  0  0
    5.1234   -1.5097   -0.0000 C   0  0  0  0  0  0  0  0  0  0  0  0
    3.8277    0.7370   -0.0000 C   0  0  0  0  0  0  0  0  0  0  0  0
   -4.0654   -3.6018   -0.0000 O   0  0  0  0  0  0  0  0  0  0  0  0
   -5.3136   -1.3195   -0.0000 N   0  0  0  0  0  0  0  0  0  0  0  0
   -1.3433    0.8321   -0.0000 C   0  0  0  0  0  0  0  0  0  0  0  0
   -3.9465    0.9034   -0.0000 C   0  0  0  0  0  0  0  0  0  0  0  0
    5.1115   -4.4933   -0.0000 C   0  0  0  0  0  0  0  0  0  0  0  0
    5.1115   -0.0000   -0.0000 C   0  0  0  0  0  0  0  0  0  0  0  0
    6.4191   -2.2586   -0.0000 C   0  0  0  0  0  0  0  0  0  0  0  0
    5.0877    1.5216   -0.0000 O   0  0  0  0  0  0  0  0  0  0  0  0
    6.3953    0.7608   -0.0000 C   0  0  0  0  0  0  0  0  0  0  0  0
    5.6583   -3.5543   -0.0000 O   0  0  0  0  0  0  0  0  0  0  0  0
    7.1561   -3.5543   -0.0000 C   0  0  0  0  0  0  0  0  0  0  0  0
    7.5721   -1.2838   -0.0000 C   0  0  0  0  0  0  0  0  0  0  0  0
    8.4637   -4.3032   -0.0000 C   0  0  0  0  0  0  0  0  0  0  0  0
    9.7356   -3.5305   -0.0000 C   0  0  0  0  0  0  0  0  0  0  0  0
   11.0313   -4.2556   -0.0000 C   0  0  0  0  0  0  0  0  0  0  0  0
   12.3151   -3.4829   -0.0000 C   0  0  0  0  0  0  0  0  0  0  0  0
   11.0313   -5.7415   -0.0000 C   0  0  0  0  0  0  0  0  0  0  0  0
  1  2  2  0  0  0  0
  2  3  1  0  0  0  0
  2  4  1  0  0  0  0
  5  3  1  6  0  0  0
  6  4  1  1  0  0  0
  5  7  1  0  0  0  0
  5  8  1  0  0  0  0
  6  9  1  0  0  0  0
  6 10  1  0  0  0  0
  7 11  1  6  0  0  0
  7 12  1  0  0  0  0
  8 13  1  0  0  0  0
  9 14  2  0  0  0  0
  9 15  1  0  0  0  0
 10 16  1  0  0  0  0
 10 17  1  0  0  0  0
 11 18  1  0  0  0  0
 12 19  1  0  0  0  0
 12 20  1  1  0  0  0
 19 21  1  1  0  0  0
 19 22  1  0  0  0  0
 20 23  1  0  0  0  0
 20 24  1  0  0  0  0
 20 25  1  1  0  0  0
 24 26  1  1  0  0  0
 26 27  1  0  0  0  0
 27 28  2  0  0  0  0
 28 29  1  0  0  0  0
 28 30  1  0  0  0  0
 13 19  1  0  0  0  0
 21 22  1  0  0  0  0
 23 24  1  0  0  0  0
M  END
>  <MolRegNo>
1925064

>  <m>
=

>  <Value>
287000

>  <Unit>
nM

>  <Type>
Ki

>  <pValue>
0

>  <Ligand Efficiency>
0

>  <Binding Efficiency>
0

>  <Surface Efficiency>
0

>  <Assay Index>
938204

>  <Assay Category>


>  <Assay Organism>
Homo sapiens

>  <Target ID>
17045

>  <Target Name>
Cytochrome P450 3A4

>  <Target Organism>
Homo sapiens

>  <Target Description>
Target is a single protein chain

>  <Sequence Accession>
P08684

>  <Reference>
Drug Metab Dispos 41 (4), 814-826 (2013)

>  <Pubmed ID>
23355637

>  <DOI>
10.1124/dmd.112.048355

$$$$
484265
Actelion Java MolfileCreator 1.0

 24 26  0  0  0  0  0  0  0  0999 V2000
    0.0000   -0.0000   -0.0000 O   0  0  0  0  0  0  0  0  0  0  0  0
    1.4863    0.0238   -0.0000 C   0  0  0  0  0  0  0  0  0  0  0  0
    1.8668    1.4982   -0.0000 O   0  0  0  0  0  0  0  0  0  0  0  0
    1.8787   -1.4268   -0.0000 C   0  0  0  0  0  0  0  0  0  0  0  0
    3.1628   -0.6540   -0.0000 C   0  0  0  0  0  0  0  0  0  0  0  0
    1.8668   -2.9131   -0.0000 C   0  0  0  0  0  0  0  0  0  0  0  0
    0.5707   -0.6540   -0.0000 C   0  0  0  0  0  0  0  0  0  0  0  0
    3.1510    0.8561   -0.0000 C   0  0  0  0  0  0  0  0  0  0  0  0
    4.4470   -1.4031   -0.0000 C   0  0  0  0  0  0  0  0  0  0  0  0
    0.5588   -3.6504   -0.0000 C   0  0  0  0  0  0  0  0  0  0  0  0
    3.1510   -3.6504   -0.0000 C   0  0  0  0  0  0  0  0  0  0  0  0
   -0.7372   -1.4031   -0.0000 C   0  0  0  0  0  0  0  0  0  0  0  0
    3.1272    2.3781   -0.0000 O   0  0  0  0  0  0  0  0  0  0  0  0
    4.4351    1.6171   -0.0000 C   0  0  0  0  0  0  0  0  0  0  0  0
    5.7431   -0.6421   -0.0000 C   0  0  0  0  0  0  0  0  0  0  0  0
    4.4351   -2.8894   -0.0000 C   0  0  0  0  0  0  0  0  0  0  0  0
   -0.7491   -2.8894   -0.0000 C   0  0  0  0  0  0  0  0  0  0  0  0
   -0.2140   -4.9345   -0.0000 C   0  0  0  0  0  0  0  0  0  0  0  0
    0.9275   -5.0891   -0.0000 C   0  0  0  0  0  0  0  0  0  0  0  0
    4.4232    3.1272   -0.0000 O   0  0  0  0  0  0  0  0  0  0  0  0
    5.7312    0.8799   -0.0000 C   0  0  0  0  0  0  0  0  0  0  0  0
    7.0272    1.6409   -0.0000 C   0  0  0  0  0  0  0  0  0  0  0  0
    7.0153    3.1510   -0.0000 C   0  0  0  0  0  0  0  0  0  0  0  0
    8.3114    0.9037   -0.0000 C   0  0  0  0  0  0  0  0  0  0  0  0
  1  2  2  0  0  0  0
  2  3  1  0  0  0  0
  4  2  1  1  0  0  0
  4  5  1  0  0  0  0
  4  6  1  0  0  0  0
  4  7  1  0  0  0  0
  5  8  2  0  0  0  0
  5  9  1  0  0  0  0
  6 10  1  0  0  0  0
  6 11  1  1  0  0  0
  7 12  1  0  0  0  0
  8 13  1  0  0  0  0
  8 14  1  0  0  0  0
  9 15  2  0  0  0  0
  9 16  1  0  0  0  0
 10 17  1  0  0  0  0
 10 18  1  0  0  0  0
 10 19  1  0  0  0  0
 14 20  1  0  0  0  0
 14 21  2  0  0  0  0
 21 22  1  0  0  0  0
 22 23  1  0  0  0  0
 22 24  1  0  0  0  0
 11 16  1  0  0  0  0
 12 17  1  0  0  0  0
 15 21  1  0  0  0  0
M  END
>  <MolRegNo>
484265

>  <m>
=

>  <Value>
4300

>  <Unit>
nM

>  <Type>
Ki

>  <pValue>
5.37

>  <Ligand Efficiency>
0

>  <Binding Efficiency>
0

>  <Surface Efficiency>
0

>  <Assay Index>
935145

>  <Assay Category>


>  <Assay Organism>
Homo sapiens

>  <Target ID>
17045

>  <Target Name>
Cytochrome P450 3A4

>  <Target Organism>
Homo sapiens

>  <Target Description>
Target is a single protein chain

>  <Sequence Accession>
P08684

>  <Reference>
Drug Metab Dispos 40 (7), 1263-1267 (2012)

>  <Pubmed ID>
22531045

>  <DOI>
10.1124/dmd.112.044909

$$$$
1354598
Actelion Java MolfileCreator 1.0

 30 33  0  0  0  0  0  0  0  0999 V2000
    0.0000   -0.0000   -0.0000 F   0  0  0  0  0  0  0  0  0  0  0  0
    0.9897    1.1193   -0.0000 C   0  0  0  0  0  0  0  0  0  0  0  0
    0.5184    2.5567   -0.0000 C   0  0  0  0  0  0  0  0  0  0  0  0
    2.4389    0.8247   -0.0000 C   0  0  0  0  0  0  0  0  0  0  0  0
    1.5081    3.6760   -0.0000 C   0  0  0  0  0  0  0  0  0  0  0  0
    3.4286    1.9440   -0.0000 C   0  0  0  0  0  0  0  0  0  0  0  0
    2.9573    3.3814   -0.0000 C   0  0  0  0  0  0  0  0  0  0  0  0
    3.9470    4.5007   -0.0000 N   0  0  0  0  0  0  0  0  0  0  0  0
    3.4757    5.9381   -0.0000 C   0  0  0  0  0  0  0  0  0  0  0  0
    2.0383    6.4094   -0.0000 N   0  0  0  0  0  0  0  0  0  0  0  0
    4.3476    7.1635   -0.0000 C   0  0  0  0  0  0  0  0  0  0  0  0
    2.0265    7.9175   -0.0000 C   0  0  0  0  0  0  0  0  0  0  0  0
    0.7305    5.6672   -0.0000 C   0  0  0  0  0  0  0  0  0  0  0  0
    3.4521    8.3888   -0.0000 N   0  0  0  0  0  0  0  0  0  0  0  0
    5.8321    7.1753   -0.0000 C   0  0  0  0  0  0  0  0  0  0  0  0
    0.7187    8.6716   -0.0000 C   0  0  0  0  0  0  0  0  0  0  0  0
   -0.5773    6.4330   -0.0000 C   0  0  0  0  0  0  0  0  0  0  0  0
    6.5744    8.4831   -0.0000 C   0  0  0  0  0  0  0  0  0  0  0  0
    6.5744    5.8910   -0.0000 C   0  0  0  0  0  0  0  0  0  0  0  0
   -0.5891    7.9411   -0.0000 N   0  0  0  0  0  0  0  0  0  0  0  0
   -0.2592    9.8262   -0.0000 C   0  0  0  0  0  0  0  0  0  0  0  0
    1.6730    9.8262   -0.0000 C   0  0  0  0  0  0  0  0  0  0  0  0
    8.0589    8.4949   -0.0000 C   0  0  0  0  0  0  0  0  0  0  0  0
    8.0589    5.9028   -0.0000 C   0  0  0  0  0  0  0  0  0  0  0  0
   -1.8969    8.6951   -0.0000 C   0  0  0  0  0  0  0  0  0  0  0  0
    8.8012    7.2106   -0.0000 C   0  0  0  0  0  0  0  0  0  0  0  0
   -1.9087   10.2032   -0.0000 O   0  0  0  0  0  0  0  0  0  0  0  0
   -3.2047    7.9647   -0.0000 C   0  0  0  0  0  0  0  0  0  0  0  0
   10.2857    7.2224   -0.0000 F   0  0  0  0  0  0  0  0  0  0  0  0
   -4.5125    8.7187   -0.0000 N   0  0  0  0  0  0  0  0  0  0  0  0
  1  2  1  0  0  0  0
  2  3  2  0  0  0  0
  2  4  1  0  0  0  0
  3  5  1  0  0  0  0
  4  6  2  0  0  0  0
  5  7  2  0  0  0  0
  7  8  1  0  0  0  0
  8  9  1  0  0  0  0
  9 10  1  0  0  0  0
  9 11  2  0  0  0  0
 10 12  1  0  0  0  0
 10 13  1  0  0  0  0
 11 14  1  0  0  0  0
 11 15  1  0  0  0  0
 12 16  1  0  0  0  0
 13 17  1  0  0  0  0
 15 18  2  0  0  0  0
 15 19  1  0  0  0  0
 16 20  1  0  0  0  0
 16 21  1  0  0  0  0
 16 22  1  0  0  0  0
 18 23  1  0  0  0  0
 19 24  2  0  0  0  0
 20 25  1  0  0  0  0
 23 26  2  0  0  0  0
 25 27  2  0  0  0  0
 25 28  1  0  0  0  0
 26 29  1  0  0  0  0
 28 30  1  0  0  0  0
  6  7  1  0  0  0  0
 12 14  2  0  0  0  0
 17 20  1  0  0  0  0
 24 26  1  0  0  0  0
M  END
>  <MolRegNo>
1354598

>  <m>
=

>  <Value>
156

>  <Unit>
nM

>  <Type>
Ki

>  <pValue>
6.81

>  <Ligand Efficiency>
0

>  <Binding Efficiency>
0

>  <Surface Efficiency>
0

>  <Assay Index>
1292743

>  <Assay Category>


>  <Assay Organism>
Homo sapiens

>  <Target ID>
17045

>  <Target Name>
Cytochrome P450 3A4

>  <Target Organism>
Homo sapiens

>  <Target Description>
Target is a single protein chain

>  <Sequence Accession>
P08684

>  <Reference>
J Med Chem 62 (23), 10526-10562 (2019)

>  <Pubmed ID>
31385706

>  <DOI>
10.1021/acs.jmedchem.9b00761

$$$$
105568
Actelion Java MolfileCreator 1.0

 37 42  0  0  0  0  0  0  0  0999 V2000
    0.0000   -0.0000   -0.0000 Cl  0  0  0  0  0  0  0  0  0  0  0  0
   -0.0237    1.5186   -0.0000 C   0  0  0  0  0  0  0  0  0  0  0  0
   -1.3406    2.2779   -0.0000 C   0  0  0  0  0  0  0  0  0  0  0  0
    1.2576    2.2897   -0.0000 C   0  0  0  0  0  0  0  0  0  0  0  0
   -1.3525    3.7846   -0.0000 C   0  0  0  0  0  0  0  0  0  0  0  0
    1.2338    3.7964   -0.0000 C   0  0  0  0  0  0  0  0  0  0  0  0
   -2.6694    4.5439   -0.0000 N   0  0  0  0  0  0  0  0  0  0  0  0
   -0.0712    4.5439   -0.0000 C   0  0  0  0  0  0  0  0  0  0  0  0
   -2.6812    6.0624   -0.0000 C   0  0  0  0  0  0  0  0  0  0  0  0
   -0.0830    6.0624   -0.0000 C   0  0  0  0  0  0  0  0  0  0  0  0
   -1.3881    6.8217   -0.0000 C   0  0  0  0  0  0  0  0  0  0  0  0
    1.2101    6.8217   -0.0000 N   0  0  0  0  0  0  0  0  0  0  0  0
    2.5033    6.0862   -0.0000 C   0  0  0  0  0  0  0  0  0  0  0  0
    1.1983    8.3403   -0.0000 C   0  0  0  0  0  0  0  0  0  0  0  0
    3.7964    6.8455   -0.0000 C   0  0  0  0  0  0  0  0  0  0  0  0
    2.4914    9.0996   -0.0000 C   0  0  0  0  0  0  0  0  0  0  0  0
    3.7846    8.3640   -0.0000 N   0  0  0  0  0  0  0  0  0  0  0  0
    5.0777    9.1233   -0.0000 C   0  0  0  0  0  0  0  0  0  0  0  0
    6.3709    8.3878   -0.0000 C   0  0  0  0  0  0  0  0  0  0  0  0
    7.6641    9.1471   -0.0000 C   0  0  0  0  0  0  0  0  0  0  0  0
    8.9572    8.4115   -0.0000 N   0  0  0  0  0  0  0  0  0  0  0  0
    8.9454    6.9166   -0.0000 C   0  0  0  0  0  0  0  0  0  0  0  0
   10.2504    9.1708   -0.0000 C   0  0  0  0  0  0  0  0  0  0  0  0
   10.2385    6.1811   -0.0000 C   0  0  0  0  0  0  0  0  0  0  0  0
   11.5436    8.4352   -0.0000 C   0  0  0  0  0  0  0  0  0  0  0  0
   11.5317    6.9404   -0.0000 N   0  0  0  0  0  0  0  0  0  0  0  0
   12.8249    6.2048   -0.0000 C   0  0  0  0  0  0  0  0  0  0  0  0
   12.8130    4.7100   -0.0000 C   0  0  0  0  0  0  0  0  0  0  0  0
   14.1180    6.9641   -0.0000 C   0  0  0  0  0  0  0  0  0  0  0  0
   14.1062    3.9744   -0.0000 C   0  0  0  0  0  0  0  0  0  0  0  0
   11.4961    3.9744   -0.0000 C   0  0  0  0  0  0  0  0  0  0  0  0
   15.4112    6.2285   -0.0000 C   0  0  0  0  0  0  0  0  0  0  0  0
   15.3993    4.7337   -0.0000 N   0  0  0  0  0  0  0  0  0  0  0  0
   14.0943    2.4796   -0.0000 C   0  0  0  0  0  0  0  0  0  0  0  0
   11.4842    2.4796   -0.0000 C   0  0  0  0  0  0  0  0  0  0  0  0
   12.7774    1.7440   -0.0000 C   0  0  0  0  0  0  0  0  0  0  0  0
   12.7655    0.2491   -0.0000 Cl  0  0  0  0  0  0  0  0  0  0  0  0
  1  2  1  0  0  0  0
  2  3  2  0  0  0  0
  2  4  1  0  0  0  0
  3  5  1  0  0  0  0
  4  6  2  0  0  0  0
  5  7  2  0  0  0  0
  5  8  1  0  0  0  0
  7  9  1  0  0  0  0
  8 10  2  0  0  0  0
  9 11  2  0  0  0  0
 10 12  1  0  0  0  0
 12 13  1  0  0  0  0
 12 14  1  0  0  0  0
 13 15  1  0  0  0  0
 14 16  1  0  0  0  0
 15 17  1  0  0  0  0
 17 18  1  0  0  0  0
 18 19  1  0  0  0  0
 19 20  1  0  0  0  0
 20 21  1  0  0  0  0
 21 22  1  0  0  0  0
 21 23  1  0  0  0  0
 22 24  1  0  0  0  0
 23 25  1  0  0  0  0
 24 26  1  0  0  0  0
 26 27  1  0  0  0  0
 27 28  1  0  0  0  0
 27 29  2  0  0  0  0
 28 30  1  0  0  0  0
 28 31  2  0  0  0  0
 29 32  1  0  0  0  0
 30 33  1  0  0  0  0
 30 34  2  0  0  0  0
 31 35  1  0  0  0  0
 34 36  1  0  0  0  0
 36 37  1  0  0  0  0
  6  8  1  0  0  0  0
 10 11  1  0  0  0  0
 16 17  1  0  0  0  0
 25 26  1  0  0  0  0
 32 33  2  0  0  0  0
 35 36  2  0  0  0  0
M  END
>  <MolRegNo>
105568

>  <m>
=

>  <Value>
90

>  <Unit>
nM

>  <Type>
Ki

>  <pValue>
7.05

>  <Ligand Efficiency>
0

>  <Binding Efficiency>
0

>  <Surface Efficiency>
0

>  <Assay Index>
1292743

>  <Assay Category>


>  <Assay Organism>
Homo sapiens

>  <Target ID>
17045

>  <Target Name>
Cytochrome P450 3A4

>  <Target Organism>
Homo sapiens

>  <Target Description>
Target is a single protein chain

>  <Sequence Accession>
P08684

>  <Reference>
J Med Chem 62 (23), 10526-10562 (2019)

>  <Pubmed ID>
31385706

>  <DOI>
10.1021/acs.jmedchem.9b00761

$$$$
318390
Actelion Java MolfileCreator 1.0

 23 24  0  0  0  0  0  0  0  0999 V2000
    0.0000   -0.0000   -0.0000 O   0  0  0  0  0  0  0  0  0  0  0  0
    1.2887    0.7566   -0.0000 C   0  0  0  0  0  0  0  0  0  0  0  0
    1.2768    2.2699   -0.0000 C   0  0  0  0  0  0  0  0  0  0  0  0
    2.5773    0.0236   -0.0000 C   0  0  0  0  0  0  0  0  0  0  0  0
    2.5655    3.0266   -0.0000 C   0  0  0  0  0  0  0  0  0  0  0  0
   -0.0355    3.0266   -0.0000 C   0  0  0  0  0  0  0  0  0  0  0  0
    3.8660    0.7803   -0.0000 C   0  0  0  0  0  0  0  0  0  0  0  0
    2.5537    4.5399   -0.0000 O   0  0  0  0  0  0  0  0  0  0  0  0
    3.8542    2.2936   -0.0000 C   0  0  0  0  0  0  0  0  0  0  0  0
   -1.3478    2.2936   -0.0000 C   0  0  0  0  0  0  0  0  0  0  0  0
   -0.0473    4.5399   -0.0000 C   0  0  0  0  0  0  0  0  0  0  0  0
    5.1547    0.0473   -0.0000 C   0  0  0  0  0  0  0  0  0  0  0  0
   -2.6601    3.0502   -0.0000 C   0  0  0  0  0  0  0  0  0  0  0  0
    1.2414    5.2965   -0.0000 C   0  0  0  0  0  0  0  0  0  0  0  0
   -1.3596    5.2965   -0.0000 C   0  0  0  0  0  0  0  0  0  0  0  0
    6.4433    0.8039   -0.0000 C   0  0  0  0  0  0  0  0  0  0  0  0
   -2.6719    4.5635   -0.0000 C   0  0  0  0  0  0  0  0  0  0  0  0
   -3.9724    2.3172   -0.0000 C   0  0  0  0  0  0  0  0  0  0  0  0
    2.7192    5.4620   -0.0000 C   0  0  0  0  0  0  0  0  0  0  0  0
    1.2296    6.8098   -0.0000 C   0  0  0  0  0  0  0  0  0  0  0  0
    7.7320    0.0709   -0.0000 C   0  0  0  0  0  0  0  0  0  0  0  0
    9.0206    0.8276   -0.0000 C   0  0  0  0  0  0  0  0  0  0  0  0
   10.3093    0.0946   -0.0000 C   0  0  0  0  0  0  0  0  0  0  0  0
  1  2  1  0  0  0  0
  2  3  2  0  0  0  0
  2  4  1  0  0  0  0
  3  5  1  0  0  0  0
  6  3  1  6  0  0  0
  4  7  2  0  0  0  0
  5  8  1  0  0  0  0
  5  9  2  0  0  0  0
  6 10  1  0  0  0  0
  6 11  1  0  0  0  0
  7 12  1  0  0  0  0
 10 13  2  0  0  0  0
 11 14  1  1  0  0  0
 11 15  1  0  0  0  0
 12 16  1  0  0  0  0
 13 17  1  0  0  0  0
 13 18  1  0  0  0  0
 14 19  2  0  0  0  0
 14 20  1  0  0  0  0
 16 21  1  0  0  0  0
 21 22  1  0  0  0  0
 22 23  1  0  0  0  0
  7  9  1  0  0  0  0
 15 17  1  0  0  0  0
M  END
>  <MolRegNo>
318390

>  <m>
=

>  <Value>
1000

>  <Unit>
nM

>  <Type>
Ki

>  <pValue>
6

>  <Ligand Efficiency>
0

>  <Binding Efficiency>
0

>  <Surface Efficiency>
0

>  <Assay Index>
1398080

>  <Assay Category>


>  <Assay Organism>
Homo sapiens

>  <Target ID>
17045

>  <Target Name>
Cytochrome P450 3A4

>  <Target Organism>
Homo sapiens

>  <Target Description>
Target is a single protein chain

>  <Sequence Accession>
P08684

>  <Reference>
J Med Chem 63 (21), 12137-12155 (2020)

>  <Pubmed ID>
32804502

>  <DOI>
10.1021/acs.jmedchem.0c00724

$$$$
2491399
Actelion Java MolfileCreator 1.0

 32 35  0  0  0  0  0  0  0  0999 V2000
    0.0000   -0.0000   -0.0000 O   0  0  0  0  0  0  0  0  0  0  0  0
   -0.0238    1.5210   -0.0000 C   0  0  0  0  0  0  0  0  0  0  0  0
    1.2596    2.2934   -0.0000 N   0  0  0  0  0  0  0  0  0  0  0  0
   -1.3428    2.2815   -0.0000 N   0  0  0  0  0  0  0  0  0  0  0  0
    2.6974    1.9131   -0.0000 C   0  0  0  0  0  0  0  0  0  0  0  0
    1.6279    3.7550   -0.0000 C   0  0  0  0  0  0  0  0  0  0  0  0
   -2.6499    1.5329   -0.0000 C   0  0  0  0  0  0  0  0  0  0  0  0
    3.0658    3.3747   -0.0000 C   0  0  0  0  0  0  0  0  0  0  0  0
   -2.6499    0.0356   -0.0000 C   0  0  0  0  0  0  0  0  0  0  0  0
    4.3491    4.1471   -0.0000 O   0  0  0  0  0  0  0  0  0  0  0  0
   -3.9688   -0.7130   -0.0000 C   0  0  0  0  0  0  0  0  0  0  0  0
   -1.3546   -0.7011   -0.0000 C   0  0  0  0  0  0  0  0  0  0  0  0
    5.6443    3.4104   -0.0000 C   0  0  0  0  0  0  0  0  0  0  0  0
   -3.9688   -2.1983   -0.0000 C   0  0  0  0  0  0  0  0  0  0  0  0
   -5.2878    0.0475   -0.0000 C   0  0  0  0  0  0  0  0  0  0  0  0
   -1.3665   -2.1983   -0.0000 C   0  0  0  0  0  0  0  0  0  0  0  0
    6.9276    4.1827   -0.0000 C   0  0  0  0  0  0  0  0  0  0  0  0
    5.6443    1.9131   -0.0000 C   0  0  0  0  0  0  0  0  0  0  0  0
   -2.6855   -2.9350   -0.0000 C   0  0  0  0  0  0  0  0  0  0  0  0
   -2.6855   -4.4204   -0.0000 C   0  0  0  0  0  0  0  0  0  0  0  0
   -1.3903   -5.1571   -0.0000 N   0  0  0  0  0  0  0  0  0  0  0  0
   -3.9926   -5.1571   -0.0000 C   0  0  0  0  0  0  0  0  0  0  0  0
   -1.3903   -6.6543   -0.0000 C   0  0  0  0  0  0  0  0  0  0  0  0
   -4.0045   -6.6543   -0.0000 C   0  0  0  0  0  0  0  0  0  0  0  0
   -2.7093   -7.4030   -0.0000 N   0  0  0  0  0  0  0  0  0  0  0  0
   -0.0951   -7.3911   -0.0000 N   0  0  0  0  0  0  0  0  0  0  0  0
    1.1883   -6.6187   -0.0000 C   0  0  0  0  0  0  0  0  0  0  0  0
    1.3309   -5.0977   -0.0000 C   0  0  0  0  0  0  0  0  0  0  0  0
    2.5548   -7.2010   -0.0000 C   0  0  0  0  0  0  0  0  0  0  0  0
    2.7924   -4.7650   -0.0000 N   0  0  0  0  0  0  0  0  0  0  0  0
    3.5411   -6.0721   -0.0000 N   0  0  0  0  0  0  0  0  0  0  0  0
    5.0264   -6.2147   -0.0000 C   0  0  0  0  0  0  0  0  0  0  0  0
  1  2  2  0  0  0  0
  2  3  1  0  0  0  0
  2  4  1  0  0  0  0
  3  5  1  0  0  0  0
  3  6  1  0  0  0  0
  4  7  1  0  0  0  0
  5  8  1  0  0  0  0
  7  9  1  0  0  0  0
  8 10  1  0  0  0  0
  9 11  2  0  0  0  0
  9 12  1  0  0  0  0
 10 13  1  0  0  0  0
 11 14  1  0  0  0  0
 11 15  1  0  0  0  0
 12 16  2  0  0  0  0
 13 17  1  0  0  0  0
 13 18  1  0  0  0  0
 14 19  2  0  0  0  0
 19 20  1  0  0  0  0
 20 21  2  0  0  0  0
 20 22  1  0  0  0  0
 21 23  1  0  0  0  0
 22 24  2  0  0  0  0
 23 25  2  0  0  0  0
 23 26  1  0  0  0  0
 26 27  1  0  0  0  0
 27 28  1  0  0  0  0
 27 29  2  0  0  0  0
 28 30  2  0  0  0  0
 29 31  1  0  0  0  0
 31 32  1  0  0  0  0
  6  8  1  0  0  0  0
 16 19  1  0  0  0  0
 24 25  1  0  0  0  0
 30 31  1  0  0  0  0
M  END
>  <MolRegNo>
2491399

>  <m>
=

>  <Value>
50000

>  <Unit>
nM

>  <Type>
Ki

>  <pValue>
4.3

>  <Ligand Efficiency>
0

>  <Binding Efficiency>
0

>  <Surface Efficiency>
0

>  <Assay Index>
1401668

>  <Assay Category>


>  <Assay Organism>
Homo sapiens

>  <Target ID>
17045

>  <Target Name>
Cytochrome P450 3A4

>  <Target Organism>
Homo sapiens

>  <Target Description>
Target is a single protein chain

>  <Sequence Accession>
P08684

>  <Reference>
J Med Chem 63 (21), 12526-12541 (2020)

>  <Pubmed ID>
32696648

>  <DOI>
10.1021/acs.jmedchem.0c00702

$$$$
27340
Actelion Java MolfileCreator 1.0

 20 20  0  0  1  0  0  0  0  0999 V2000
    0.0000   -0.0000   -0.0000 Cl  0  0  0  0  0  0  0  0  0  0  0  0
   -1.3282    0.7486   -0.0000 C   0  0  0  0  0  0  0  0  0  0  0  0
   -1.3644    2.2579   -0.0000 Cl  0  0  0  0  0  0  0  0  0  0  0  0
   -2.6322   -0.0121   -0.0000 C   0  0  0  0  0  0  0  0  0  0  0  0
   -2.6322   -1.5213   -0.0000 O   0  0  0  0  0  0  0  0  0  0  0  0
   -3.9603    0.7244   -0.0000 N   0  0  0  0  0  0  0  0  0  0  0  0
   -5.2039   -0.0241   -0.0000 C   0  0  0  0  0  0  0  0  0  0  0  0
   -6.5321    0.7244   -0.0000 C   0  0  0  0  0  0  0  0  0  0  0  0
   -5.1798   -1.4972   -0.0000 C   0  0  0  0  0  0  0  0  0  0  0  0
   -6.5562    2.2458   -0.0000 O   0  0  0  0  0  0  0  0  0  0  0  0
   -7.8482   -0.0000   -0.0000 C   0  0  0  0  0  0  0  0  0  0  0  0
   -6.4717   -2.2820   -0.0000 O   0  0  0  0  0  0  0  0  0  0  0  0
   -9.1522    0.7365   -0.0000 C   0  0  0  0  0  0  0  0  0  0  0  0
   -7.8602   -1.4368   -0.0000 C   0  0  0  0  0  0  0  0  0  0  0  0
  -10.4803   -0.0000   -0.0000 C   0  0  0  0  0  0  0  0  0  0  0  0
   -9.1643   -2.1975   -0.0000 C   0  0  0  0  0  0  0  0  0  0  0  0
  -10.4683   -1.4972   -0.0000 C   0  0  0  0  0  0  0  0  0  0  0  0
  -11.7964   -2.1975   -0.0000 N   0  0  0  0  0  0  0  0  0  0  0  0
  -11.7843   -3.7188   -0.0000 O   0  0  0  0  0  0  0  0  0  0  0  0
  -13.1004   -1.4972   -0.0000 O   0  0  0  0  0  0  0  0  0  0  0  0
  1  2  1  0  0  0  0
  2  3  1  0  0  0  0
  2  4  1  0  0  0  0
  4  5  2  0  0  0  0
  4  6  1  0  0  0  0
  7  6  1  6  0  0  0
  7  8  1  0  0  0  0
  7  9  1  0  0  0  0
  8 10  1  1  0  0  0
  8 11  1  0  0  0  0
  9 12  1  0  0  0  0
 11 13  2  0  0  0  0
 11 14  1  0  0  0  0
 13 15  1  0  0  0  0
 14 16  2  0  0  0  0
 15 17  2  0  0  0  0
 17 18  1  0  0  0  0
 18 19  2  0  0  0  0
 18 20  1  0  0  0  0
 16 17  1  0  0  0  0
M  CHG  2  18   1  20  -1
M  END
>  <MolRegNo>
27340

>  <m>
=

>  <Value>
10600

>  <Unit>
nM

>  <Type>
Ki

>  <pValue>
4.97

>  <Ligand Efficiency>
0

>  <Binding Efficiency>
0

>  <Surface Efficiency>
0

>  <Assay Index>
1498937

>  <Assay Category>


>  <Assay Organism>
Homo sapiens

>  <Target ID>
17045

>  <Target Name>
Cytochrome P450 3A4

>  <Target Organism>
Homo sapiens

>  <Target Description>
Target is a single protein chain

>  <Sequence Accession>
P08684

>  <Reference>
J Med Chem 64 (12.0), 8437-8446 (2021)

>  <Pubmed ID>
34097831

>  <DOI>
10.1021/acs.jmedchem.1c00404

$$$$
378226
Actelion Java MolfileCreator 1.0

 29 33  0  0  0  0  0  0  0  0999 V2000
    0.0000   -0.0000   -0.0000 F   0  0  0  0  0  0  0  0  0  0  0  0
   -1.3038    0.7586   -0.0000 C   0  0  0  0  0  0  0  0  0  0  0  0
   -2.0624    2.0624   -0.0000 C   0  0  0  0  0  0  0  0  0  0  0  0
   -2.8091    0.7704   -0.0000 C   0  0  0  0  0  0  0  0  0  0  0  0
   -2.0861    3.5796   -0.0000 N   0  0  0  0  0  0  0  0  0  0  0  0
   -3.4018    4.3381   -0.0000 C   0  0  0  0  0  0  0  0  0  0  0  0
   -0.7941    4.3500   -0.0000 C   0  0  0  0  0  0  0  0  0  0  0  0
   -4.7056    3.6033   -0.0000 C   0  0  0  0  0  0  0  0  0  0  0  0
   -3.4255    5.8553   -0.0000 C   0  0  0  0  0  0  0  0  0  0  0  0
   -0.8178    5.8672   -0.0000 C   0  0  0  0  0  0  0  0  0  0  0  0
   -4.7174    2.1217   -0.0000 O   0  0  0  0  0  0  0  0  0  0  0  0
   -6.0094    4.3618   -0.0000 C   0  0  0  0  0  0  0  0  0  0  0  0
   -2.1454    6.6257   -0.0000 C   0  0  0  0  0  0  0  0  0  0  0  0
   -4.7293    6.6020   -0.0000 C   0  0  0  0  0  0  0  0  0  0  0  0
    0.4623    6.6257   -0.0000 C   0  0  0  0  0  0  0  0  0  0  0  0
   -6.0212    1.3868   -0.0000 C   0  0  0  0  0  0  0  0  0  0  0  0
   -7.3132    3.6388   -0.0000 N   0  0  0  0  0  0  0  0  0  0  0  0
   -6.0212    5.8672   -0.0000 C   0  0  0  0  0  0  0  0  0  0  0  0
   -2.1691    8.1310   -0.0000 O   0  0  0  0  0  0  0  0  0  0  0  0
    1.7424    5.8909   -0.0000 O   0  0  0  0  0  0  0  0  0  0  0  0
    0.4504    8.1310   -0.0000 O   0  0  0  0  0  0  0  0  0  0  0  0
   -8.6881    4.2552   -0.0000 C   0  0  0  0  0  0  0  0  0  0  0  0
   -7.4791    2.1691   -0.0000 C   0  0  0  0  0  0  0  0  0  0  0  0
   -9.6956    3.1647   -0.0000 C   0  0  0  0  0  0  0  0  0  0  0  0
   -8.9489    1.8727   -0.0000 C   0  0  0  0  0  0  0  0  0  0  0  0
  -11.2009    3.1766   -0.0000 C   0  0  0  0  0  0  0  0  0  0  0  0
  -11.9477    1.8965   -0.0000 N   0  0  0  0  0  0  0  0  0  0  0  0
  -12.5759    3.7929   -0.0000 C   0  0  0  0  0  0  0  0  0  0  0  0
  -11.3787    4.6700   -0.0000 C   0  0  0  0  0  0  0  0  0  0  0  0
  2  1  1  6  0  0  0
  2  3  1  0  0  0  0
  2  4  1  0  0  0  0
  3  5  1  6  0  0  0
  5  6  1  0  0  0  0
  5  7  1  0  0  0  0
  6  8  2  0  0  0  0
  6  9  1  0  0  0  0
  7 10  2  0  0  0  0
  8 11  1  0  0  0  0
  8 12  1  0  0  0  0
  9 13  1  0  0  0  0
  9 14  2  0  0  0  0
 10 15  1  0  0  0  0
 11 16  1  0  0  0  0
 12 17  1  0  0  0  0
 12 18  2  0  0  0  0
 13 19  2  0  0  0  0
 15 20  2  0  0  0  0
 15 21  1  0  0  0  0
 17 22  1  0  0  0  0
 17 23  1  0  0  0  0
 22 24  1  0  0  0  0
 23 25  1  0  0  0  0
 24 26  1  6  0  0  0
 26 27  1  0  0  0  0
 26 28  1  0  0  0  0
 26 29  1  0  0  0  0
  3  4  1  0  0  0  0
 10 13  1  0  0  0  0
 14 18  1  0  0  0  0
 24 25  1  0  0  0  0
 28 29  1  0  0  0  0
M  END
>  <MolRegNo>
378226

>  <m>
=

>  <Value>
67900

>  <Unit>
nM

>  <Type>
Ki

>  <pValue>
4.17

>  <Ligand Efficiency>
0

>  <Binding Efficiency>
0

>  <Surface Efficiency>
0

>  <Assay Index>
1548834

>  <Assay Category>


>  <Assay Organism>
Homo sapiens

>  <Target ID>
17045

>  <Target Name>
Cytochrome P450 3A4

>  <Target Organism>
Homo sapiens

>  <Target Description>
Target is a single protein chain

>  <Sequence Accession>
P08684

>  <Reference>


>  <Pubmed ID>
35202969

>  <DOI>
10.1016/j.bmc.2022.116674

$$$$
493896
Actelion Java MolfileCreator 1.0

 14 15  0  0  0  0  0  0  0  0999 V2000
    0.0000   -0.0000   -0.0000 O   0  0  0  0  0  0  0  0  0  0  0  0
   -1.3082   -0.7307   -0.0000 C   0  0  0  0  0  0  0  0  0  0  0  0
   -2.6163    0.0354   -0.0000 O   0  0  0  0  0  0  0  0  0  0  0  0
   -1.3317   -2.2156   -0.0000 C   0  0  0  0  0  0  0  0  0  0  0  0
   -3.9245   -0.6953   -0.0000 C   0  0  0  0  0  0  0  0  0  0  0  0
   -2.6399   -2.9463   -0.0000 C   0  0  0  0  0  0  0  0  0  0  0  0
   -3.9481   -2.1803   -0.0000 C   0  0  0  0  0  0  0  0  0  0  0  0
   -5.2327    0.0707   -0.0000 C   0  0  0  0  0  0  0  0  0  0  0  0
   -5.2445   -2.9110   -0.0000 C   0  0  0  0  0  0  0  0  0  0  0  0
   -6.5409   -0.6718   -0.0000 C   0  0  0  0  0  0  0  0  0  0  0  0
   -5.2563   -4.3959   -0.0000 O   0  0  0  0  0  0  0  0  0  0  0  0
   -6.5527   -2.1567   -0.0000 C   0  0  0  0  0  0  0  0  0  0  0  0
   -6.5644   -5.1384   -0.0000 C   0  0  0  0  0  0  0  0  0  0  0  0
   -7.8726   -4.3841   -0.0000 C   0  0  0  0  0  0  0  0  0  0  0  0
  1  2  2  0  0  0  0
  2  3  1  0  0  0  0
  2  4  1  0  0  0  0
  3  5  1  0  0  0  0
  4  6  2  0  0  0  0
  5  7  2  0  0  0  0
  5  8  1  0  0  0  0
  7  9  1  0  0  0  0
  8 10  2  0  0  0  0
  9 11  1  0  0  0  0
  9 12  2  0  0  0  0
 11 13  1  0  0  0  0
 13 14  1  0  0  0  0
  6  7  1  0  0  0  0
 10 12  1  0  0  0  0
M  END
>  <MolRegNo>
493896

>  <m>
=

>  <Value>
424000

>  <Unit>
nM

>  <Type>
Ki

>  <pValue>
0

>  <Ligand Efficiency>
0

>  <Binding Efficiency>
0

>  <Surface Efficiency>
0

>  <Assay Index>
1632683

>  <Assay Category>


>  <Assay Organism>
Homo sapiens

>  <Target ID>
17045

>  <Target Name>
Cytochrome P450 3A4

>  <Target Organism>
Homo sapiens

>  <Target Description>
Target is a single protein chain

>  <Sequence Accession>
P08684

>  <Reference>


>  <Pubmed ID>
36889653

>  <DOI>
10.1016/j.bmcl.2023.129206

$$$$
493838
Actelion Java MolfileCreator 1.0

 13 14  0  0  0  0  0  0  0  0999 V2000
    0.0000   -0.0000   -0.0000 O   0  0  0  0  0  0  0  0  0  0  0  0
   -1.3088   -0.7310   -0.0000 C   0  0  0  0  0  0  0  0  0  0  0  0
   -2.6176    0.0354   -0.0000 O   0  0  0  0  0  0  0  0  0  0  0  0
   -1.3324   -2.2167   -0.0000 C   0  0  0  0  0  0  0  0  0  0  0  0
   -3.9264   -0.6957   -0.0000 C   0  0  0  0  0  0  0  0  0  0  0  0
   -2.6412   -2.9477   -0.0000 C   0  0  0  0  0  0  0  0  0  0  0  0
   -3.9500   -2.1813   -0.0000 C   0  0  0  0  0  0  0  0  0  0  0  0
   -5.2352    0.0707   -0.0000 C   0  0  0  0  0  0  0  0  0  0  0  0
   -5.2470   -2.9124   -0.0000 C   0  0  0  0  0  0  0  0  0  0  0  0
   -6.5440   -0.6721   -0.0000 C   0  0  0  0  0  0  0  0  0  0  0  0
   -5.2588   -4.3980   -0.0000 O   0  0  0  0  0  0  0  0  0  0  0  0
   -6.5558   -2.1578   -0.0000 C   0  0  0  0  0  0  0  0  0  0  0  0
   -6.5676   -5.1409   -0.0000 C   0  0  0  0  0  0  0  0  0  0  0  0
  1  2  2  0  0  0  0
  2  3  1  0  0  0  0
  2  4  1  0  0  0  0
  3  5  1  0  0  0  0
  4  6  2  0  0  0  0
  5  7  2  0  0  0  0
  5  8  1  0  0  0  0
  7  9  1  0  0  0  0
  8 10  2  0  0  0  0
  9 11  1  0  0  0  0
  9 12  2  0  0  0  0
 11 13  1  0  0  0  0
  6  7  1  0  0  0  0
 10 12  1  0  0  0  0
M  END
>  <MolRegNo>
493838

>  <m>
=

>  <Value>
448300

>  <Unit>
nM

>  <Type>
Ki

>  <pValue>
0

>  <Ligand Efficiency>
0

>  <Binding Efficiency>
0

>  <Surface Efficiency>
0

>  <Assay Index>
1632683

>  <Assay Category>


>  <Assay Organism>
Homo sapiens

>  <Target ID>
17045

>  <Target Name>
Cytochrome P450 3A4

>  <Target Organism>
Homo sapiens

>  <Target Description>
Target is a single protein chain

>  <Sequence Accession>
P08684

>  <Reference>


>  <Pubmed ID>
36889653

>  <DOI>
10.1016/j.bmcl.2023.129206

$$$$
2808775
Actelion Java MolfileCreator 1.0

 15 16  0  0  0  0  0  0  0  0999 V2000
    0.0000   -0.0000   -0.0000 O   0  0  0  0  0  0  0  0  0  0  0  0
   -1.3020    0.7507   -0.0000 C   0  0  0  0  0  0  0  0  0  0  0  0
   -2.6041    0.0235   -0.0000 O   0  0  0  0  0  0  0  0  0  0  0  0
   -1.3138    2.2522   -0.0000 C   0  0  0  0  0  0  0  0  0  0  0  0
   -3.9061    0.7859   -0.0000 C   0  0  0  0  0  0  0  0  0  0  0  0
   -2.6158    3.0146   -0.0000 C   0  0  0  0  0  0  0  0  0  0  0  0
   -3.9179    2.2874   -0.0000 C   0  0  0  0  0  0  0  0  0  0  0  0
   -5.1965    0.0587   -0.0000 C   0  0  0  0  0  0  0  0  0  0  0  0
   -5.2199    3.0381   -0.0000 C   0  0  0  0  0  0  0  0  0  0  0  0
   -6.4985    0.8094   -0.0000 C   0  0  0  0  0  0  0  0  0  0  0  0
   -5.2316    4.5396   -0.0000 O   0  0  0  0  0  0  0  0  0  0  0  0
   -6.5220    2.3108   -0.0000 C   0  0  0  0  0  0  0  0  0  0  0  0
   -6.5337    5.3020   -0.0000 C   0  0  0  0  0  0  0  0  0  0  0  0
   -6.5454    6.8035   -0.0000 C   0  0  0  0  0  0  0  0  0  0  0  0
   -6.5572    8.3049   -0.0000 C   0  0  0  0  0  0  0  0  0  0  0  0
  1  2  2  0  0  0  0
  2  3  1  0  0  0  0
  2  4  1  0  0  0  0
  3  5  1  0  0  0  0
  4  6  2  0  0  0  0
  5  7  2  0  0  0  0
  5  8  1  0  0  0  0
  7  9  1  0  0  0  0
  8 10  2  0  0  0  0
  9 11  1  0  0  0  0
  9 12  2  0  0  0  0
 11 13  1  0  0  0  0
 13 14  1  0  0  0  0
 14 15  3  0  0  0  0
  6  7  1  0  0  0  0
 10 12  1  0  0  0  0
M  END
>  <MolRegNo>
2808775

>  <m>
=

>  <Value>
46600

>  <Unit>
nM

>  <Type>
Ki

>  <pValue>
4.33

>  <Ligand Efficiency>
0

>  <Binding Efficiency>
0

>  <Surface Efficiency>
0

>  <Assay Index>
1632684

>  <Assay Category>


>  <Assay Organism>
Homo sapiens

>  <Target ID>
17045

>  <Target Name>
Cytochrome P450 3A4

>  <Target Organism>
Homo sapiens

>  <Target Description>
Target is a single protein chain

>  <Sequence Accession>
P08684

>  <Reference>


>  <Pubmed ID>
36889653

>  <DOI>
10.1016/j.bmcl.2023.129206

$$$$
492993
Actelion Java MolfileCreator 1.0

 15 16  0  0  0  0  0  0  0  0999 V2000
    0.0000   -0.0000   -0.0000 O   0  0  0  0  0  0  0  0  0  0  0  0
   -1.3079   -0.7306   -0.0000 C   0  0  0  0  0  0  0  0  0  0  0  0
   -2.6159    0.0353   -0.0000 O   0  0  0  0  0  0  0  0  0  0  0  0
   -1.3315   -2.2153   -0.0000 C   0  0  0  0  0  0  0  0  0  0  0  0
   -3.9238   -0.6952   -0.0000 C   0  0  0  0  0  0  0  0  0  0  0  0
   -2.6395   -2.9458   -0.0000 C   0  0  0  0  0  0  0  0  0  0  0  0
   -3.9474   -2.1799   -0.0000 C   0  0  0  0  0  0  0  0  0  0  0  0
   -5.2318    0.0707   -0.0000 C   0  0  0  0  0  0  0  0  0  0  0  0
   -5.2436   -2.9105   -0.0000 C   0  0  0  0  0  0  0  0  0  0  0  0
   -6.5397   -0.6716   -0.0000 C   0  0  0  0  0  0  0  0  0  0  0  0
   -5.2553   -4.3952   -0.0000 O   0  0  0  0  0  0  0  0  0  0  0  0
   -6.5515   -2.1563   -0.0000 C   0  0  0  0  0  0  0  0  0  0  0  0
   -6.5633   -5.1375   -0.0000 C   0  0  0  0  0  0  0  0  0  0  0  0
   -7.8712   -4.3834   -0.0000 C   0  0  0  0  0  0  0  0  0  0  0  0
   -9.1792   -5.1257   -0.0000 C   0  0  0  0  0  0  0  0  0  0  0  0
  1  2  2  0  0  0  0
  2  3  1  0  0  0  0
  2  4  1  0  0  0  0
  3  5  1  0  0  0  0
  4  6  2  0  0  0  0
  5  7  2  0  0  0  0
  5  8  1  0  0  0  0
  7  9  1  0  0  0  0
  8 10  2  0  0  0  0
  9 11  1  0  0  0  0
  9 12  2  0  0  0  0
 11 13  1  0  0  0  0
 13 14  1  0  0  0  0
 14 15  2  0  0  0  0
  6  7  1  0  0  0  0
 10 12  1  0  0  0  0
M  END
>  <MolRegNo>
492993

>  <m>
=

>  <Value>
28100

>  <Unit>
nM

>  <Type>
Ki

>  <pValue>
4.55

>  <Ligand Efficiency>
0

>  <Binding Efficiency>
0

>  <Surface Efficiency>
0

>  <Assay Index>
1632684

>  <Assay Category>


>  <Assay Organism>
Homo sapiens

>  <Target ID>
17045

>  <Target Name>
Cytochrome P450 3A4

>  <Target Organism>
Homo sapiens

>  <Target Description>
Target is a single protein chain

>  <Sequence Accession>
P08684

>  <Reference>


>  <Pubmed ID>
36889653

>  <DOI>
10.1016/j.bmcl.2023.129206

$$$$
