218915
Actelion Java MolfileCreator 1.0

 28 32  0  0  0  0  0  0  0  0999 V2000
    0.0000   -0.0000   -0.0000 S   0  0  0  0  0  0  0  0  0  0  0  0
    0.4376   -1.4194   -0.0000 C   0  0  0  0  0  0  0  0  0  0  0  0
   -1.5140    0.0237   -0.0000 C   0  0  0  0  0  0  0  0  0  0  0  0
   -0.7925   -2.2710   -0.0000 C   0  0  0  0  0  0  0  0  0  0  0  0
   -1.9871   -1.3839   -0.0000 C   0  0  0  0  0  0  0  0  0  0  0  0
   -0.8161   -3.7613   -0.0000 C   0  0  0  0  0  0  0  0  0  0  0  0
   -2.1291   -4.5065   -0.0000 C   0  0  0  0  0  0  0  0  0  0  0  0
   -3.4538   -3.7495   -0.0000 O   0  0  0  0  0  0  0  0  0  0  0  0
   -2.1409   -5.9969   -0.0000 C   0  0  0  0  0  0  0  0  0  0  0  0
   -4.7667   -4.4947   -0.0000 C   0  0  0  0  0  0  0  0  0  0  0  0
   -0.8516   -6.7302   -0.0000 C   0  0  0  0  0  0  0  0  0  0  0  0
   -3.4656   -6.7302   -0.0000 C   0  0  0  0  0  0  0  0  0  0  0  0
   -4.7786   -5.9850   -0.0000 C   0  0  0  0  0  0  0  0  0  0  0  0
   -6.0797   -3.7377   -0.0000 C   0  0  0  0  0  0  0  0  0  0  0  0
   -0.8635   -8.2205   -0.0000 C   0  0  0  0  0  0  0  0  0  0  0  0
    0.4376   -5.9732   -0.0000 C   0  0  0  0  0  0  0  0  0  0  0  0
   -3.4775   -8.2205   -0.0000 C   0  0  0  0  0  0  0  0  0  0  0  0
   -6.0915   -6.7184   -0.0000 C   0  0  0  0  0  0  0  0  0  0  0  0
   -7.3926   -4.4829   -0.0000 C   0  0  0  0  0  0  0  0  0  0  0  0
    0.4258   -8.9657   -0.0000 N   0  0  0  0  0  0  0  0  0  0  0  0
   -2.2000   -8.9657   -0.0000 C   0  0  0  0  0  0  0  0  0  0  0  0
    1.7269   -6.7065   -0.0000 C   0  0  0  0  0  0  0  0  0  0  0  0
    0.4258   -4.4592   -0.0000 C   0  0  0  0  0  0  0  0  0  0  0  0
   -7.4044   -5.9614   -0.0000 C   0  0  0  0  0  0  0  0  0  0  0  0
    1.7151   -8.1969   -0.0000 C   0  0  0  0  0  0  0  0  0  0  0  0
   -8.7410   -6.7184   -0.0000 F   0  0  0  0  0  0  0  0  0  0  0  0
    2.7678   -7.1324   -0.0000 C   0  0  0  0  0  0  0  0  0  0  0  0
    2.7678   -9.2496   -0.0000 C   0  0  0  0  0  0  0  0  0  0  0  0
  1  2  1  0  0  0  0
  1  3  1  0  0  0  0
  2  4  2  0  0  0  0
  3  5  2  0  0  0  0
  4  6  1  0  0  0  0
  6  7  2  0  0  0  0
  7  8  1  0  0  0  0
  7  9  1  0  0  0  0
  8 10  1  0  0  0  0
  9 11  2  0  0  0  0
  9 12  1  0  0  0  0
 10 13  2  0  0  0  0
 10 14  1  0  0  0  0
 11 15  1  0  0  0  0
 11 16  1  0  0  0  0
 12 17  2  0  0  0  0
 13 18  1  0  0  0  0
 14 19  2  0  0  0  0
 15 20  1  0  0  0  0
 15 21  2  0  0  0  0
 16 22  2  0  0  0  0
 16 23  1  0  0  0  0
 18 24  2  0  0  0  0
 20 25  1  0  0  0  0
 24 26  1  0  0  0  0
 25 27  1  0  0  0  0
 25 28  1  0  0  0  0
  4  5  1  0  0  0  0
 12 13  1  0  0  0  0
 17 21  1  0  0  0  0
 19 24  1  0  0  0  0
 22 25  1  0  0  0  0
M  END
>  <MolRegNo>
218915

>  <m>
=

>  <Value>
669

>  <Unit>
nM

>  <Type>
Ki

>  <pValue>
6.17

>  <Ligand Efficiency>
0.3

>  <Binding Efficiency>
15.85

>  <Surface Efficiency>
29.04

>  <Assay Index>
36203

>  <Assay Category>


>  <Assay Organism>
Homo sapiens

>  <Target ID>
56

>  <Target Name>
Androgen Receptor

>  <Target Organism>
Homo sapiens

>  <Target Description>
Target is a single protein chain

>  <Sequence Accession>
P10275

>  <Reference>
J Med Chem 46 (19), 4104-4112 (2003)

>  <Pubmed ID>
12954062

>  <DOI>
10.1021/jm020477g

$$$$
218997
Actelion Java MolfileCreator 1.0

 31 35  0  0  0  0  0  0  0  0999 V2000
    0.0000   -0.0000   -0.0000 F   0  0  0  0  0  0  0  0  0  0  0  0
    1.2992    0.7628   -0.0000 C   0  0  0  0  0  0  0  0  0  0  0  0
    2.5865    0.0238   -0.0000 C   0  0  0  0  0  0  0  0  0  0  0  0
    1.2873    2.2766   -0.0000 C   0  0  0  0  0  0  0  0  0  0  0  0
    3.8737    0.7867   -0.0000 C   0  0  0  0  0  0  0  0  0  0  0  0
    2.5745    3.0394   -0.0000 C   0  0  0  0  0  0  0  0  0  0  0  0
    3.8618    2.3004   -0.0000 C   0  0  0  0  0  0  0  0  0  0  0  0
    5.1610    0.0477   -0.0000 C   0  0  0  0  0  0  0  0  0  0  0  0
    5.1491    3.0632   -0.0000 O   0  0  0  0  0  0  0  0  0  0  0  0
    6.4602    0.8105   -0.0000 C   0  0  0  0  0  0  0  0  0  0  0  0
    5.1491   -1.4422   -0.0000 C   0  0  0  0  0  0  0  0  0  0  0  0
    6.4483    2.3242   -0.0000 C   0  0  0  0  0  0  0  0  0  0  0  0
    7.7594    0.0715   -0.0000 C   0  0  0  0  0  0  0  0  0  0  0  0
    6.4364   -2.1812   -0.0000 C   0  0  0  0  0  0  0  0  0  0  0  0
    7.7475    3.0871   -0.0000 C   0  0  0  0  0  0  0  0  0  0  0  0
    7.7475   -1.4184   -0.0000 C   0  0  0  0  0  0  0  0  0  0  0  0
    9.0467    0.8343   -0.0000 C   0  0  0  0  0  0  0  0  0  0  0  0
    7.7475    4.6008   -0.0000 C   0  0  0  0  0  0  0  0  0  0  0  0
    9.0347   -2.1574   -0.0000 N   0  0  0  0  0  0  0  0  0  0  0  0
   10.3339    0.0954   -0.0000 C   0  0  0  0  0  0  0  0  0  0  0  0
    9.0347    2.3481   -0.0000 C   0  0  0  0  0  0  0  0  0  0  0  0
    9.0467    5.3636   -0.0000 C   0  0  0  0  0  0  0  0  0  0  0  0
    6.4364    5.3636   -0.0000 C   0  0  0  0  0  0  0  0  0  0  0  0
   10.3220   -1.3945   -0.0000 C   0  0  0  0  0  0  0  0  0  0  0  0
    9.0347    6.8893   -0.0000 C   0  0  0  0  0  0  0  0  0  0  0  0
   10.3339    4.6246   -0.0000 C   0  0  0  0  0  0  0  0  0  0  0  0
    6.4244    6.8893   -0.0000 C   0  0  0  0  0  0  0  0  0  0  0  0
   11.3709   -2.4434   -0.0000 C   0  0  0  0  0  0  0  0  0  0  0  0
   11.3709   -0.3337   -0.0000 C   0  0  0  0  0  0  0  0  0  0  0  0
    7.7117    7.6521   -0.0000 C   0  0  0  0  0  0  0  0  0  0  0  0
   10.3101    3.1347   -0.0000 C   0  0  0  0  0  0  0  0  0  0  0  0
  1  2  1  0  0  0  0
  2  3  2  0  0  0  0
  2  4  1  0  0  0  0
  3  5  1  0  0  0  0
  4  6  2  0  0  0  0
  5  7  2  0  0  0  0
  5  8  1  0  0  0  0
  7  9  1  0  0  0  0
  8 10  2  0  0  0  0
  8 11  1  0  0  0  0
  9 12  1  0  0  0  0
 10 13  1  0  0  0  0
 11 14  2  0  0  0  0
 12 15  2  0  0  0  0
 13 16  2  0  0  0  0
 13 17  1  0  0  0  0
 15 18  1  0  0  0  0
 16 19  1  0  0  0  0
 17 20  2  0  0  0  0
 17 21  1  0  0  0  0
 18 22  2  0  0  0  0
 18 23  1  0  0  0  0
 19 24  1  0  0  0  0
 22 25  1  0  0  0  0
 22 26  1  0  0  0  0
 23 27  2  0  0  0  0
 24 28  1  0  0  0  0
 24 29  1  0  0  0  0
 25 30  2  0  0  0  0
 26 31  1  0  0  0  0
  6  7  1  0  0  0  0
 10 12  1  0  0  0  0
 14 16  1  0  0  0  0
 20 24  1  0  0  0  0
 27 30  1  0  0  0  0
M  END
>  <MolRegNo>
218997

>  <m>
=

>  <Value>
1589

>  <Unit>
nM

>  <Type>
Ki

>  <pValue>
5.8

>  <Ligand Efficiency>
0.26

>  <Binding Efficiency>
14.09

>  <Surface Efficiency>
27.28

>  <Assay Index>
36203

>  <Assay Category>


>  <Assay Organism>
Homo sapiens

>  <Target ID>
56

>  <Target Name>
Androgen Receptor

>  <Target Organism>
Homo sapiens

>  <Target Description>
Target is a single protein chain

>  <Sequence Accession>
P10275

>  <Reference>
J Med Chem 46 (19), 4104-4112 (2003)

>  <Pubmed ID>
12954062

>  <DOI>
10.1021/jm020477g

$$$$
219001
Actelion Java MolfileCreator 1.0

 32 36  0  0  0  0  0  0  0  0999 V2000
    0.0000   -0.0000   -0.0000 F   0  0  0  0  0  0  0  0  0  0  0  0
    1.3108    0.7746   -0.0000 C   0  0  0  0  0  0  0  0  0  0  0  0
    2.5978    0.0357   -0.0000 C   0  0  0  0  0  0  0  0  0  0  0  0
    1.2989    2.2880   -0.0000 C   0  0  0  0  0  0  0  0  0  0  0  0
    3.8848    0.7984   -0.0000 C   0  0  0  0  0  0  0  0  0  0  0  0
    2.5859    3.0506   -0.0000 C   0  0  0  0  0  0  0  0  0  0  0  0
    3.8728    2.3118   -0.0000 C   0  0  0  0  0  0  0  0  0  0  0  0
    5.1717    0.0596   -0.0000 C   0  0  0  0  0  0  0  0  0  0  0  0
    5.1598    3.0744   -0.0000 O   0  0  0  0  0  0  0  0  0  0  0  0
    6.4706    0.8222   -0.0000 C   0  0  0  0  0  0  0  0  0  0  0  0
    5.1598   -1.4300   -0.0000 C   0  0  0  0  0  0  0  0  0  0  0  0
    6.4587    2.3356   -0.0000 C   0  0  0  0  0  0  0  0  0  0  0  0
    7.7695    0.0834   -0.0000 C   0  0  0  0  0  0  0  0  0  0  0  0
    6.4468   -2.1688   -0.0000 C   0  0  0  0  0  0  0  0  0  0  0  0
    7.7576    3.0983   -0.0000 C   0  0  0  0  0  0  0  0  0  0  0  0
    7.7576   -1.4061   -0.0000 C   0  0  0  0  0  0  0  0  0  0  0  0
    9.0565    0.8461   -0.0000 C   0  0  0  0  0  0  0  0  0  0  0  0
    7.7576    4.6117   -0.0000 C   0  0  0  0  0  0  0  0  0  0  0  0
    9.0446   -2.1450   -0.0000 N   0  0  0  0  0  0  0  0  0  0  0  0
   10.3435    0.1072   -0.0000 C   0  0  0  0  0  0  0  0  0  0  0  0
    9.0446    2.3595   -0.0000 C   0  0  0  0  0  0  0  0  0  0  0  0
    9.0446    5.3743   -0.0000 C   0  0  0  0  0  0  0  0  0  0  0  0
    6.4349    5.3743   -0.0000 C   0  0  0  0  0  0  0  0  0  0  0  0
   10.3315   -1.3823   -0.0000 C   0  0  0  0  0  0  0  0  0  0  0  0
   10.3315    4.6355   -0.0000 N   0  0  0  0  0  0  0  0  0  0  0  0
    9.0327    6.8996   -0.0000 C   0  0  0  0  0  0  0  0  0  0  0  0
    6.4349    6.8996   -0.0000 C   0  0  0  0  0  0  0  0  0  0  0  0
   11.3802   -2.4310   -0.0000 C   0  0  0  0  0  0  0  0  0  0  0  0
   11.3802   -0.3217   -0.0000 C   0  0  0  0  0  0  0  0  0  0  0  0
   10.3196    3.1459   -0.0000 C   0  0  0  0  0  0  0  0  0  0  0  0
   11.6304    5.3981   -0.0000 C   0  0  0  0  0  0  0  0  0  0  0  0
    7.7218    7.6623   -0.0000 C   0  0  0  0  0  0  0  0  0  0  0  0
  1  2  1  0  0  0  0
  2  3  2  0  0  0  0
  2  4  1  0  0  0  0
  3  5  1  0  0  0  0
  4  6  2  0  0  0  0
  5  7  2  0  0  0  0
  5  8  1  0  0  0  0
  7  9  1  0  0  0  0
  8 10  2  0  0  0  0
  8 11  1  0  0  0  0
  9 12  1  0  0  0  0
 10 13  1  0  0  0  0
 11 14  2  0  0  0  0
 12 15  2  0  0  0  0
 13 16  2  0  0  0  0
 13 17  1  0  0  0  0
 15 18  1  0  0  0  0
 16 19  1  0  0  0  0
 17 20  2  0  0  0  0
 17 21  1  0  0  0  0
 18 22  2  0  0  0  0
 18 23  1  0  0  0  0
 19 24  1  0  0  0  0
 22 25  1  0  0  0  0
 22 26  1  0  0  0  0
 23 27  2  0  0  0  0
 24 28  1  0  0  0  0
 24 29  1  0  0  0  0
 25 30  1  0  0  0  0
 25 31  1  0  0  0  0
 26 32  2  0  0  0  0
  6  7  1  0  0  0  0
 10 12  1  0  0  0  0
 14 16  1  0  0  0  0
 20 24  1  0  0  0  0
 27 32  1  0  0  0  0
M  END
>  <MolRegNo>
219001

>  <m>
=

>  <Value>
819

>  <Unit>
nM

>  <Type>
Ki

>  <pValue>
6.09

>  <Ligand Efficiency>
0.26

>  <Binding Efficiency>
14.27

>  <Surface Efficiency>
24.84

>  <Assay Index>
36203

>  <Assay Category>


>  <Assay Organism>
Homo sapiens

>  <Target ID>
56

>  <Target Name>
Androgen Receptor

>  <Target Organism>
Homo sapiens

>  <Target Description>
Target is a single protein chain

>  <Sequence Accession>
P10275

>  <Reference>
J Med Chem 46 (19), 4104-4112 (2003)

>  <Pubmed ID>
12954062

>  <DOI>
10.1021/jm020477g

$$$$
218149
Actelion Java MolfileCreator 1.0

 29 33  0  0  0  0  0  0  0  0999 V2000
    0.0000   -0.0000   -0.0000 F   0  0  0  0  0  0  0  0  0  0  0  0
   -0.0119   -1.4903   -0.0000 C   0  0  0  0  0  0  0  0  0  0  0  0
    1.2757   -2.2295   -0.0000 C   0  0  0  0  0  0  0  0  0  0  0  0
   -1.3353   -2.2295   -0.0000 C   0  0  0  0  0  0  0  0  0  0  0  0
    2.5514   -1.4665   -0.0000 O   0  0  0  0  0  0  0  0  0  0  0  0
    1.2638   -3.7198   -0.0000 C   0  0  0  0  0  0  0  0  0  0  0  0
   -1.3472   -3.7198   -0.0000 C   0  0  0  0  0  0  0  0  0  0  0  0
    3.8629   -2.2057   -0.0000 C   0  0  0  0  0  0  0  0  0  0  0  0
    2.5395   -4.4590   -0.0000 C   0  0  0  0  0  0  0  0  0  0  0  0
   -0.0477   -4.4590   -0.0000 C   0  0  0  0  0  0  0  0  0  0  0  0
    3.8510   -3.6960   -0.0000 C   0  0  0  0  0  0  0  0  0  0  0  0
    5.1625   -1.4426   -0.0000 C   0  0  0  0  0  0  0  0  0  0  0  0
    2.5276   -5.9493   -0.0000 C   0  0  0  0  0  0  0  0  0  0  0  0
    5.1386   -4.4352   -0.0000 C   0  0  0  0  0  0  0  0  0  0  0  0
    5.1625    0.0715   -0.0000 C   0  0  0  0  0  0  0  0  0  0  0  0
    3.8271   -6.6885   -0.0000 C   0  0  0  0  0  0  0  0  0  0  0  0
    5.1267   -5.9255   -0.0000 C   0  0  0  0  0  0  0  0  0  0  0  0
    6.4262   -3.6721   -0.0000 C   0  0  0  0  0  0  0  0  0  0  0  0
    3.8391    0.8346   -0.0000 C   0  0  0  0  0  0  0  0  0  0  0  0
    6.4501    0.8346   -0.0000 C   0  0  0  0  0  0  0  0  0  0  0  0
    6.4143   -6.6647   -0.0000 N   0  0  0  0  0  0  0  0  0  0  0  0
    7.7258   -4.4113   -0.0000 C   0  0  0  0  0  0  0  0  0  0  0  0
    6.4143   -2.1580   -0.0000 C   0  0  0  0  0  0  0  0  0  0  0  0
    3.8271    2.3607   -0.0000 C   0  0  0  0  0  0  0  0  0  0  0  0
    6.4382    2.3607   -0.0000 C   0  0  0  0  0  0  0  0  0  0  0  0
    7.7139   -5.9017   -0.0000 C   0  0  0  0  0  0  0  0  0  0  0  0
    5.1267    3.1237   -0.0000 C   0  0  0  0  0  0  0  0  0  0  0  0
    8.7631   -6.9508   -0.0000 C   0  0  0  0  0  0  0  0  0  0  0  0
    8.7631   -4.8405   -0.0000 C   0  0  0  0  0  0  0  0  0  0  0  0
  1  2  1  0  0  0  0
  2  3  2  0  0  0  0
  2  4  1  0  0  0  0
  3  5  1  0  0  0  0
  3  6  1  0  0  0  0
  4  7  2  0  0  0  0
  5  8  1  0  0  0  0
  6  9  1  0  0  0  0
  6 10  2  0  0  0  0
  8 11  1  0  0  0  0
  8 12  2  0  0  0  0
  9 13  1  0  0  0  0
 11 14  1  0  0  0  0
 12 15  1  0  0  0  0
 13 16  2  0  0  0  0
 14 17  2  0  0  0  0
 14 18  1  0  0  0  0
 15 19  2  0  0  0  0
 15 20  1  0  0  0  0
 17 21  1  0  0  0  0
 18 22  2  0  0  0  0
 18 23  1  0  0  0  0
 19 24  1  0  0  0  0
 20 25  2  0  0  0  0
 21 26  1  0  0  0  0
 24 27  2  0  0  0  0
 26 28  1  0  0  0  0
 26 29  1  0  0  0  0
  7 10  1  0  0  0  0
  9 11  2  0  0  0  0
 16 17  1  0  0  0  0
 22 26  1  0  0  0  0
 25 27  1  0  0  0  0
M  END
>  <MolRegNo>
218149

>  <m>
=

>  <Value>
1456

>  <Unit>
nM

>  <Type>
Ki

>  <pValue>
5.84

>  <Ligand Efficiency>
0.27

>  <Binding Efficiency>
15.22

>  <Surface Efficiency>
27.45

>  <Assay Index>
36203

>  <Assay Category>


>  <Assay Organism>
Homo sapiens

>  <Target ID>
56

>  <Target Name>
Androgen Receptor

>  <Target Organism>
Homo sapiens

>  <Target Description>
Target is a single protein chain

>  <Sequence Accession>
P10275

>  <Reference>
J Med Chem 46 (19), 4104-4112 (2003)

>  <Pubmed ID>
12954062

>  <DOI>
10.1021/jm020477g

$$$$
34608
Actelion Java MolfileCreator 1.0

 28 31  0  0  1  0  0  0  0  0999 V2000
    0.0000   -0.0000   -0.0000 O   0  0  0  0  0  0  0  0  0  0  0  0
    1.3002    0.7515   -0.0000 C   0  0  0  0  0  0  0  0  0  0  0  0
    2.5766    0.0239   -0.0000 C   0  0  0  0  0  0  0  0  0  0  0  0
    1.2883    2.2784   -0.0000 C   0  0  0  0  0  0  0  0  0  0  0  0
    3.8649    0.7754   -0.0000 C   0  0  0  0  0  0  0  0  0  0  0  0
    2.5647    3.0299   -0.0000 C   0  0  0  0  0  0  0  0  0  0  0  0
    3.8530    2.3022   -0.0000 C   0  0  0  0  0  0  0  0  0  0  0  0
    5.1413    0.0358   -0.0000 C   0  0  0  0  0  0  0  0  0  0  0  0
    5.1413    3.0537   -0.0000 C   0  0  0  0  0  0  0  0  0  0  0  0
    3.8291    3.8172   -0.0000 C   0  0  0  0  0  0  0  0  0  0  0  0
    6.4296    0.7873   -0.0000 C   0  0  0  0  0  0  0  0  0  0  0  0
    5.1174   -1.4553   -0.0000 C   0  0  0  0  0  0  0  0  0  0  0  0
    6.4296    2.3022   -0.0000 C   0  0  0  0  0  0  0  0  0  0  0  0
    5.1413    4.5687   -0.0000 C   0  0  0  0  0  0  0  0  0  0  0  0
    7.7179    3.0537   -0.0000 C   0  0  0  0  0  0  0  0  0  0  0  0
    6.4415    5.3202   -0.0000 C   0  0  0  0  0  0  0  0  0  0  0  0
    7.7179    4.5687   -0.0000 C   0  0  0  0  0  0  0  0  0  0  0  0
    9.1374    2.5766   -0.0000 C   0  0  0  0  0  0  0  0  0  0  0  0
    9.1374    5.0339   -0.0000 C   0  0  0  0  0  0  0  0  0  0  0  0
    7.6940    6.0836   -0.0000 C   0  0  0  0  0  0  0  0  0  0  0  0
   10.0201    3.8053   -0.0000 C   0  0  0  0  0  0  0  0  0  0  0  0
   10.4257    5.8093   -0.0000 O   0  0  0  0  0  0  0  0  0  0  0  0
    9.1135    6.5489   -0.0000 C   0  0  0  0  0  0  0  0  0  0  0  0
   11.7259    5.0816   -0.0000 C   0  0  0  0  0  0  0  0  0  0  0  0
    7.7894    7.3004   -0.0000 O   0  0  0  0  0  0  0  0  0  0  0  0
   10.3899    7.3362   -0.0000 C   0  0  0  0  0  0  0  0  0  0  0  0
   11.7259    3.5905   -0.0000 O   0  0  0  0  0  0  0  0  0  0  0  0
   13.0023    5.8570   -0.0000 C   0  0  0  0  0  0  0  0  0  0  0  0
  1  2  2  0  0  0  0
  2  3  1  0  0  0  0
  2  4  1  0  0  0  0
  3  5  2  0  0  0  0
  4  6  1  0  0  0  0
  5  7  1  0  0  0  0
  5  8  1  0  0  0  0
  7  9  1  0  0  0  0
  7 10  1  1  0  0  0
  8 11  1  0  0  0  0
  8 12  1  6  0  0  0
  9 13  1  0  0  0  0
  9 14  1  1  0  0  0
 13 15  1  0  0  0  0
 14 16  1  0  0  0  0
 15 17  1  0  0  0  0
 15 18  1  1  0  0  0
 17 19  1  0  0  0  0
 17 20  1  1  0  0  0
 18 21  1  0  0  0  0
 19 22  1  6  0  0  0
 19 23  1  0  0  0  0
 22 24  1  0  0  0  0
 23 25  2  0  0  0  0
 23 26  1  0  0  0  0
 24 27  2  0  0  0  0
 24 28  1  0  0  0  0
  6  7  1  0  0  0  0
 13 11  1  6  0  0  0
 16 17  1  0  0  0  0
 19 21  1  0  0  0  0
M  END
>  <MolRegNo>
34608

>  <m>
=

>  <Value>
2.9

>  <Unit>
nM

>  <Type>
Ki

>  <pValue>
8.54

>  <Ligand Efficiency>
0.42

>  <Binding Efficiency>
22.09

>  <Surface Efficiency>
14.13

>  <Assay Index>
36203

>  <Assay Category>


>  <Assay Organism>
Homo sapiens

>  <Target ID>
56

>  <Target Name>
Androgen Receptor

>  <Target Organism>
Homo sapiens

>  <Target Description>
Target is a single protein chain

>  <Sequence Accession>
P10275

>  <Reference>
J Med Chem 46 (19), 4104-4112 (2003)

>  <Pubmed ID>
12954062

>  <DOI>
10.1021/jm020477g

$$$$
219109
Actelion Java MolfileCreator 1.0

 30 34  0  0  0  0  0  0  0  0999 V2000
    0.0000   -0.0000   -0.0000 F   0  0  0  0  0  0  0  0  0  0  0  0
   -0.0119   -1.4917   -0.0000 C   0  0  0  0  0  0  0  0  0  0  0  0
    1.2769   -2.2315   -0.0000 C   0  0  0  0  0  0  0  0  0  0  0  0
   -1.3246   -2.2315   -0.0000 C   0  0  0  0  0  0  0  0  0  0  0  0
    2.5657   -1.4678   -0.0000 O   0  0  0  0  0  0  0  0  0  0  0  0
    1.2649   -3.7232   -0.0000 C   0  0  0  0  0  0  0  0  0  0  0  0
   -1.3365   -3.7232   -0.0000 C   0  0  0  0  0  0  0  0  0  0  0  0
    3.8664   -2.2077   -0.0000 C   0  0  0  0  0  0  0  0  0  0  0  0
    2.5537   -4.4631   -0.0000 C   0  0  0  0  0  0  0  0  0  0  0  0
   -0.0477   -4.4631   -0.0000 C   0  0  0  0  0  0  0  0  0  0  0  0
    3.8545   -3.6994   -0.0000 C   0  0  0  0  0  0  0  0  0  0  0  0
    5.1672   -1.4439   -0.0000 C   0  0  0  0  0  0  0  0  0  0  0  0
    2.5418   -5.9548   -0.0000 C   0  0  0  0  0  0  0  0  0  0  0  0
    5.1552   -4.4392   -0.0000 C   0  0  0  0  0  0  0  0  0  0  0  0
    5.1672    0.0716   -0.0000 C   0  0  0  0  0  0  0  0  0  0  0  0
    3.8306   -6.6946   -0.0000 C   0  0  0  0  0  0  0  0  0  0  0  0
    5.1433   -5.9309   -0.0000 C   0  0  0  0  0  0  0  0  0  0  0  0
    6.4440   -3.6755   -0.0000 C   0  0  0  0  0  0  0  0  0  0  0  0
    6.4679    0.8353   -0.0000 C   0  0  0  0  0  0  0  0  0  0  0  0
    3.8545    0.8353   -0.0000 C   0  0  0  0  0  0  0  0  0  0  0  0
    6.4321   -6.6708   -0.0000 N   0  0  0  0  0  0  0  0  0  0  0  0
    7.7328   -4.4154   -0.0000 C   0  0  0  0  0  0  0  0  0  0  0  0
    6.4321   -2.1599   -0.0000 C   0  0  0  0  0  0  0  0  0  0  0  0
    6.4560    2.3628   -0.0000 C   0  0  0  0  0  0  0  0  0  0  0  0
    7.7567    0.0955   -0.0000 C   0  0  0  0  0  0  0  0  0  0  0  0
    3.8426    2.3628   -0.0000 C   0  0  0  0  0  0  0  0  0  0  0  0
    7.7209   -5.9070   -0.0000 C   0  0  0  0  0  0  0  0  0  0  0  0
    5.1314    3.1266   -0.0000 C   0  0  0  0  0  0  0  0  0  0  0  0
    8.7711   -6.9572   -0.0000 C   0  0  0  0  0  0  0  0  0  0  0  0
    8.7711   -4.8450   -0.0000 C   0  0  0  0  0  0  0  0  0  0  0  0
  1  2  1  0  0  0  0
  2  3  2  0  0  0  0
  2  4  1  0  0  0  0
  3  5  1  0  0  0  0
  3  6  1  0  0  0  0
  4  7  2  0  0  0  0
  5  8  1  0  0  0  0
  6  9  1  0  0  0  0
  6 10  2  0  0  0  0
  8 11  1  0  0  0  0
  8 12  2  0  0  0  0
  9 13  1  0  0  0  0
 11 14  1  0  0  0  0
 12 15  1  0  0  0  0
 13 16  2  0  0  0  0
 14 17  2  0  0  0  0
 14 18  1  0  0  0  0
 15 19  2  0  0  0  0
 15 20  1  0  0  0  0
 17 21  1  0  0  0  0
 18 22  2  0  0  0  0
 18 23  1  0  0  0  0
 19 24  1  0  0  0  0
 19 25  1  0  0  0  0
 20 26  2  0  0  0  0
 21 27  1  0  0  0  0
 24 28  2  0  0  0  0
 27 29  1  0  0  0  0
 27 30  1  0  0  0  0
  7 10  1  0  0  0  0
  9 11  2  0  0  0  0
 16 17  1  0  0  0  0
 22 27  1  0  0  0  0
 26 28  1  0  0  0  0
M  END
>  <MolRegNo>
219109

>  <m>
=

>  <Value>
960

>  <Unit>
nM

>  <Type>
Ki

>  <pValue>
6.02

>  <Ligand Efficiency>
0.27

>  <Binding Efficiency>
15.14

>  <Surface Efficiency>
28.31

>  <Assay Index>
36203

>  <Assay Category>


>  <Assay Organism>
Homo sapiens

>  <Target ID>
56

>  <Target Name>
Androgen Receptor

>  <Target Organism>
Homo sapiens

>  <Target Description>
Target is a single protein chain

>  <Sequence Accession>
P10275

>  <Reference>
J Med Chem 46 (19), 4104-4112 (2003)

>  <Pubmed ID>
12954062

>  <DOI>
10.1021/jm020477g

$$$$
218872
Actelion Java MolfileCreator 1.0

 31 35  0  0  0  0  0  0  0  0999 V2000
    0.0000   -0.0000   -0.0000 F   0  0  0  0  0  0  0  0  0  0  0  0
    1.3108    0.7746   -0.0000 C   0  0  0  0  0  0  0  0  0  0  0  0
    2.5978    0.0357   -0.0000 C   0  0  0  0  0  0  0  0  0  0  0  0
    1.2989    2.2880   -0.0000 C   0  0  0  0  0  0  0  0  0  0  0  0
    3.8847    0.7984   -0.0000 C   0  0  0  0  0  0  0  0  0  0  0  0
    2.5859    3.0506   -0.0000 C   0  0  0  0  0  0  0  0  0  0  0  0
    3.8728    2.3118   -0.0000 C   0  0  0  0  0  0  0  0  0  0  0  0
    5.1717    0.0596   -0.0000 C   0  0  0  0  0  0  0  0  0  0  0  0
    5.1598    3.0744   -0.0000 O   0  0  0  0  0  0  0  0  0  0  0  0
    6.4706    0.8222   -0.0000 C   0  0  0  0  0  0  0  0  0  0  0  0
    5.1598   -1.4300   -0.0000 C   0  0  0  0  0  0  0  0  0  0  0  0
    6.4587    2.3356   -0.0000 C   0  0  0  0  0  0  0  0  0  0  0  0
    7.7695    0.0834   -0.0000 C   0  0  0  0  0  0  0  0  0  0  0  0
    6.4468   -2.1688   -0.0000 C   0  0  0  0  0  0  0  0  0  0  0  0
    7.7576    3.0983   -0.0000 C   0  0  0  0  0  0  0  0  0  0  0  0
    7.7576   -1.4061   -0.0000 C   0  0  0  0  0  0  0  0  0  0  0  0
    9.0565    0.8461   -0.0000 C   0  0  0  0  0  0  0  0  0  0  0  0
    7.7576    4.6116   -0.0000 C   0  0  0  0  0  0  0  0  0  0  0  0
    9.0446   -2.1450   -0.0000 N   0  0  0  0  0  0  0  0  0  0  0  0
   10.3434    0.1072   -0.0000 C   0  0  0  0  0  0  0  0  0  0  0  0
    9.0446    2.3594   -0.0000 C   0  0  0  0  0  0  0  0  0  0  0  0
    9.0446    5.3743   -0.0000 C   0  0  0  0  0  0  0  0  0  0  0  0
    6.4349    5.3743   -0.0000 C   0  0  0  0  0  0  0  0  0  0  0  0
   10.3315   -1.3823   -0.0000 C   0  0  0  0  0  0  0  0  0  0  0  0
   10.3196    4.6355   -0.0000 O   0  0  0  0  0  0  0  0  0  0  0  0
    9.0326    6.8996   -0.0000 C   0  0  0  0  0  0  0  0  0  0  0  0
    6.4349    6.8996   -0.0000 C   0  0  0  0  0  0  0  0  0  0  0  0
   11.3802   -2.4309   -0.0000 C   0  0  0  0  0  0  0  0  0  0  0  0
   11.3802   -0.3217   -0.0000 C   0  0  0  0  0  0  0  0  0  0  0  0
   11.6185    5.3981   -0.0000 C   0  0  0  0  0  0  0  0  0  0  0  0
    7.7218    7.6623   -0.0000 C   0  0  0  0  0  0  0  0  0  0  0  0
  1  2  1  0  0  0  0
  2  3  2  0  0  0  0
  2  4  1  0  0  0  0
  3  5  1  0  0  0  0
  4  6  2  0  0  0  0
  5  7  2  0  0  0  0
  5  8  1  0  0  0  0
  7  9  1  0  0  0  0
  8 10  2  0  0  0  0
  8 11  1  0  0  0  0
  9 12  1  0  0  0  0
 10 13  1  0  0  0  0
 11 14  2  0  0  0  0
 12 15  2  0  0  0  0
 13 16  2  0  0  0  0
 13 17  1  0  0  0  0
 15 18  1  0  0  0  0
 16 19  1  0  0  0  0
 17 20  2  0  0  0  0
 17 21  1  0  0  0  0
 18 22  2  0  0  0  0
 18 23  1  0  0  0  0
 19 24  1  0  0  0  0
 22 25  1  0  0  0  0
 22 26  1  0  0  0  0
 23 27  2  0  0  0  0
 24 28  1  0  0  0  0
 24 29  1  0  0  0  0
 25 30  1  0  0  0  0
 26 31  2  0  0  0  0
  6  7  1  0  0  0  0
 10 12  1  0  0  0  0
 14 16  1  0  0  0  0
 20 24  1  0  0  0  0
 27 31  1  0  0  0  0
M  END
>  <MolRegNo>
218872

>  <m>
=

>  <Value>
439

>  <Unit>
nM

>  <Type>
Ki

>  <pValue>
6.36

>  <Ligand Efficiency>
0.28

>  <Binding Efficiency>
15.38

>  <Surface Efficiency>
20.85

>  <Assay Index>
36203

>  <Assay Category>


>  <Assay Organism>
Homo sapiens

>  <Target ID>
56

>  <Target Name>
Androgen Receptor

>  <Target Organism>
Homo sapiens

>  <Target Description>
Target is a single protein chain

>  <Sequence Accession>
P10275

>  <Reference>
J Med Chem 46 (19), 4104-4112 (2003)

>  <Pubmed ID>
12954062

>  <DOI>
10.1021/jm020477g

$$$$
12825
Actelion Java MolfileCreator 1.0

 23 26  0  0  1  0  0  0  0  0999 V2000
    0.0000   -0.0000   -0.0000 O   0  0  0  0  0  0  0  0  0  0  0  0
    1.2871    0.7508   -0.0000 C   0  0  0  0  0  0  0  0  0  0  0  0
    2.5741    0.0238   -0.0000 C   0  0  0  0  0  0  0  0  0  0  0  0
    1.2751    2.2762   -0.0000 C   0  0  0  0  0  0  0  0  0  0  0  0
    3.8612    0.7746   -0.0000 C   0  0  0  0  0  0  0  0  0  0  0  0
    2.5622    3.0270   -0.0000 C   0  0  0  0  0  0  0  0  0  0  0  0
    3.8493    2.3000   -0.0000 C   0  0  0  0  0  0  0  0  0  0  0  0
    5.1363    0.0477   -0.0000 C   0  0  0  0  0  0  0  0  0  0  0  0
    5.1363    3.0508   -0.0000 C   0  0  0  0  0  0  0  0  0  0  0  0
    3.8254    3.8135   -0.0000 C   0  0  0  0  0  0  0  0  0  0  0  0
    6.4234    0.7985   -0.0000 C   0  0  0  0  0  0  0  0  0  0  0  0
    6.4234    2.3000   -0.0000 C   0  0  0  0  0  0  0  0  0  0  0  0
    5.1244    4.5762   -0.0000 C   0  0  0  0  0  0  0  0  0  0  0  0
    7.7105    3.0508   -0.0000 C   0  0  0  0  0  0  0  0  0  0  0  0
    6.4353    5.3270   -0.0000 C   0  0  0  0  0  0  0  0  0  0  0  0
    7.7105    4.5643   -0.0000 C   0  0  0  0  0  0  0  0  0  0  0  0
    9.1286    2.5741   -0.0000 C   0  0  0  0  0  0  0  0  0  0  0  0
    9.1286    5.0291   -0.0000 C   0  0  0  0  0  0  0  0  0  0  0  0
    7.6866    6.0778   -0.0000 C   0  0  0  0  0  0  0  0  0  0  0  0
    9.9986    3.8016   -0.0000 C   0  0  0  0  0  0  0  0  0  0  0  0
    9.1048    6.5426   -0.0000 C   0  0  0  0  0  0  0  0  0  0  0  0
    7.7939    7.2934   -0.0000 O   0  0  0  0  0  0  0  0  0  0  0  0
   10.3919    7.3291   -0.0000 C   0  0  0  0  0  0  0  0  0  0  0  0
  1  2  2  0  0  0  0
  2  3  1  0  0  0  0
  2  4  1  0  0  0  0
  3  5  2  0  0  0  0
  4  6  1  0  0  0  0
  5  7  1  0  0  0  0
  5  8  1  0  0  0  0
  7  9  1  0  0  0  0
  7 10  1  1  0  0  0
  8 11  1  0  0  0  0
  9 12  1  0  0  0  0
  9 13  1  1  0  0  0
 12 14  1  0  0  0  0
 13 15  1  0  0  0  0
 14 16  1  0  0  0  0
 14 17  1  1  0  0  0
 16 18  1  0  0  0  0
 16 19  1  1  0  0  0
 17 20  1  0  0  0  0
 18 21  1  1  0  0  0
 21 22  2  0  0  0  0
 21 23  1  0  0  0  0
  6  7  1  0  0  0  0
 12 11  1  6  0  0  0
 15 16  1  0  0  0  0
 18 20  1  0  0  0  0
M  END
>  <MolRegNo>
12825

>  <m>
=

>  <Value>
8.5

>  <Unit>
nM

>  <Type>
Ki

>  <pValue>
8.07

>  <Ligand Efficiency>
0.48

>  <Binding Efficiency>
25.66

>  <Surface Efficiency>
23.64

>  <Assay Index>
36204

>  <Assay Category>


>  <Assay Organism>
Homo sapiens

>  <Target ID>
56

>  <Target Name>
Androgen Receptor

>  <Target Organism>
Homo sapiens

>  <Target Description>
Target is a single protein chain

>  <Sequence Accession>
P10275

>  <Reference>
J Med Chem 46 (19), 4104-4112 (2003)

>  <Pubmed ID>
12954062

>  <DOI>
10.1021/jm020477g

$$$$
3214
Actelion Java MolfileCreator 1.0

 26 29  0  0  0  0  0  0  0  0999 V2000
    0.0000   -0.0000   -0.0000 O   0  0  0  0  0  0  0  0  0  0  0  0
   -1.3114   -0.7510   -0.0000 C   0  0  0  0  0  0  0  0  0  0  0  0
    1.2994   -0.7391   -0.0000 C   0  0  0  0  0  0  0  0  0  0  0  0
   -1.3114   -2.2531   -0.0000 C   0  0  0  0  0  0  0  0  0  0  0  0
   -2.6227   -0.0000   -0.0000 C   0  0  0  0  0  0  0  0  0  0  0  0
    1.2994   -2.2412   -0.0000 C   0  0  0  0  0  0  0  0  0  0  0  0
    2.5869    0.0238   -0.0000 C   0  0  0  0  0  0  0  0  0  0  0  0
   -2.6227   -2.9923   -0.0000 C   0  0  0  0  0  0  0  0  0  0  0  0
   -0.0119   -2.9923   -0.0000 C   0  0  0  0  0  0  0  0  0  0  0  0
   -3.9341   -0.7391   -0.0000 C   0  0  0  0  0  0  0  0  0  0  0  0
    2.5869   -2.9804   -0.0000 C   0  0  0  0  0  0  0  0  0  0  0  0
    2.5750    1.5379   -0.0000 C   0  0  0  0  0  0  0  0  0  0  0  0
   -2.6346   -4.4824   -0.0000 O   0  0  0  0  0  0  0  0  0  0  0  0
   -3.9341   -2.2293   -0.0000 C   0  0  0  0  0  0  0  0  0  0  0  0
   -0.0238   -4.4824   -0.0000 C   0  0  0  0  0  0  0  0  0  0  0  0
    2.5750   -4.4824   -0.0000 C   0  0  0  0  0  0  0  0  0  0  0  0
    3.8745   -2.2055   -0.0000 C   0  0  0  0  0  0  0  0  0  0  0  0
    3.8625    2.3008   -0.0000 C   0  0  0  0  0  0  0  0  0  0  0  0
   -3.9460   -5.2216   -0.0000 C   0  0  0  0  0  0  0  0  0  0  0  0
    1.2756   -5.2216   -0.0000 C   0  0  0  0  0  0  0  0  0  0  0  0
    3.8625   -5.2216   -0.0000 N   0  0  0  0  0  0  0  0  0  0  0  0
    5.1739   -2.9565   -0.0000 C   0  0  0  0  0  0  0  0  0  0  0  0
    3.8506   -0.6914   -0.0000 C   0  0  0  0  0  0  0  0  0  0  0  0
    5.1620   -4.4586   -0.0000 C   0  0  0  0  0  0  0  0  0  0  0  0
    5.1381   -5.9369   -0.0000 C   0  0  0  0  0  0  0  0  0  0  0  0
    6.4614   -3.7195   -0.0000 C   0  0  0  0  0  0  0  0  0  0  0  0
  1  2  1  0  0  0  0
  1  3  1  0  0  0  0
  2  4  2  0  0  0  0
  2  5  1  0  0  0  0
  3  6  1  0  0  0  0
  3  7  1  0  0  0  0
  4  8  1  0  0  0  0
  4  9  1  0  0  0  0
  5 10  2  0  0  0  0
  6 11  1  0  0  0  0
  7 12  1  0  0  0  0
  8 13  1  0  0  0  0
  8 14  2  0  0  0  0
  9 15  1  0  0  0  0
 11 16  2  0  0  0  0
 11 17  1  0  0  0  0
 12 18  2  0  0  0  0
 13 19  1  0  0  0  0
 15 20  2  0  0  0  0
 16 21  1  0  0  0  0
 17 22  2  0  0  0  0
 17 23  1  0  0  0  0
 21 24  1  0  0  0  0
 24 25  1  0  0  0  0
 24 26  1  0  0  0  0
  6  9  2  0  0  0  0
 10 14  1  0  0  0  0
 16 20  1  0  0  0  0
 22 24  1  0  0  0  0
M  END
>  <MolRegNo>
3214

>  <m>
=

>  <Value>
1230

>  <Unit>
nM

>  <Type>
Ki

>  <pValue>
5.91

>  <Ligand Efficiency>
0.31

>  <Binding Efficiency>
17.01

>  <Surface Efficiency>
19.38

>  <Assay Index>
209883

>  <Assay Category>


>  <Assay Organism>
Homo sapiens

>  <Target ID>
56

>  <Target Name>
Androgen Receptor

>  <Target Organism>
Homo sapiens

>  <Target Description>
Target is a single protein chain

>  <Sequence Accession>
P10275

>  <Reference>
J Med Chem 46 (6), 1016-1030 (2003)

>  <Pubmed ID>
12620078

>  <DOI>
10.1021/jm020335m

$$$$
3408
Actelion Java MolfileCreator 1.0

 26 29  0  0  0  0  0  0  0  0999 V2000
    0.0000   -0.0000   -0.0000 O   0  0  0  0  0  0  0  0  0  0  0  0
   -1.3174   -0.7358   -0.0000 C   0  0  0  0  0  0  0  0  0  0  0  0
    1.2936   -0.7358   -0.0000 C   0  0  0  0  0  0  0  0  0  0  0  0
   -1.3411   -2.2312   -0.0000 C   0  0  0  0  0  0  0  0  0  0  0  0
   -2.6347    0.0356   -0.0000 C   0  0  0  0  0  0  0  0  0  0  0  0
    1.2818   -2.2312   -0.0000 C   0  0  0  0  0  0  0  0  0  0  0  0
    2.5872    0.0119   -0.0000 C   0  0  0  0  0  0  0  0  0  0  0  0
   -2.6466   -2.9670   -0.0000 C   0  0  0  0  0  0  0  0  0  0  0  0
   -0.0475   -2.9789   -0.0000 C   0  0  0  0  0  0  0  0  0  0  0  0
   -3.9521   -0.7121   -0.0000 C   0  0  0  0  0  0  0  0  0  0  0  0
    2.5635   -2.9789   -0.0000 C   0  0  0  0  0  0  0  0  0  0  0  0
    2.5872    1.5310   -0.0000 C   0  0  0  0  0  0  0  0  0  0  0  0
   -2.6585   -4.4624   -0.0000 N   0  0  0  0  0  0  0  0  0  0  0  0
   -3.9639   -2.2075   -0.0000 C   0  0  0  0  0  0  0  0  0  0  0  0
   -0.0712   -4.4505   -0.0000 C   0  0  0  0  0  0  0  0  0  0  0  0
    2.5279   -4.4743   -0.0000 C   0  0  0  0  0  0  0  0  0  0  0  0
    3.8571   -2.2312   -0.0000 C   0  0  0  0  0  0  0  0  0  0  0  0
    3.8809    2.2905   -0.0000 C   0  0  0  0  0  0  0  0  0  0  0  0
   -3.9758   -5.1982   -0.0000 C   0  0  0  0  0  0  0  0  0  0  0  0
    1.2105   -5.2101   -0.0000 C   0  0  0  0  0  0  0  0  0  0  0  0
    3.7978   -5.2338   -0.0000 N   0  0  0  0  0  0  0  0  0  0  0  0
    5.1270   -2.9908   -0.0000 C   0  0  0  0  0  0  0  0  0  0  0  0
    3.8690   -0.7121   -0.0000 C   0  0  0  0  0  0  0  0  0  0  0  0
    5.1033   -4.4861   -0.0000 C   0  0  0  0  0  0  0  0  0  0  0  0
    6.3969   -3.7266   -0.0000 C   0  0  0  0  0  0  0  0  0  0  0  0
    5.0795   -5.9815   -0.0000 C   0  0  0  0  0  0  0  0  0  0  0  0
  1  2  1  0  0  0  0
  1  3  1  0  0  0  0
  2  4  2  0  0  0  0
  2  5  1  0  0  0  0
  3  6  1  0  0  0  0
  3  7  1  0  0  0  0
  4  8  1  0  0  0  0
  4  9  1  0  0  0  0
  5 10  2  0  0  0  0
  6 11  1  0  0  0  0
  7 12  1  0  0  0  0
  8 13  1  0  0  0  0
  8 14  2  0  0  0  0
  9 15  1  0  0  0  0
 11 16  2  0  0  0  0
 11 17  1  0  0  0  0
 12 18  2  0  0  0  0
 13 19  1  0  0  0  0
 15 20  2  0  0  0  0
 16 21  1  0  0  0  0
 17 22  2  0  0  0  0
 17 23  1  0  0  0  0
 21 24  1  0  0  0  0
 24 25  1  0  0  0  0
 24 26  1  0  0  0  0
  6  9  2  0  0  0  0
 10 14  1  0  0  0  0
 16 20  1  0  0  0  0
 22 24  1  0  0  0  0
M  END
>  <MolRegNo>
3408

>  <m>
=

>  <Value>
2590

>  <Unit>
nM

>  <Type>
Ki

>  <pValue>
5.59

>  <Ligand Efficiency>
0.29

>  <Binding Efficiency>
16.12

>  <Surface Efficiency>
16.78

>  <Assay Index>
209883

>  <Assay Category>


>  <Assay Organism>
Homo sapiens

>  <Target ID>
56

>  <Target Name>
Androgen Receptor

>  <Target Organism>
Homo sapiens

>  <Target Description>
Target is a single protein chain

>  <Sequence Accession>
P10275

>  <Reference>
J Med Chem 46 (6), 1016-1030 (2003)

>  <Pubmed ID>
12620078

>  <DOI>
10.1021/jm020335m

$$$$
3460
Actelion Java MolfileCreator 1.0

 26 29  0  0  0  0  0  0  0  0999 V2000
    0.0000   -0.0000   -0.0000 O   0  0  0  0  0  0  0  0  0  0  0  0
   -1.3179   -0.7480   -0.0000 C   0  0  0  0  0  0  0  0  0  0  0  0
    1.2942   -0.7480   -0.0000 C   0  0  0  0  0  0  0  0  0  0  0  0
   -1.3417   -2.2440   -0.0000 C   0  0  0  0  0  0  0  0  0  0  0  0
   -2.6358    0.0356   -0.0000 C   0  0  0  0  0  0  0  0  0  0  0  0
    1.2823   -2.2440   -0.0000 C   0  0  0  0  0  0  0  0  0  0  0  0
    2.5883    0.0119   -0.0000 C   0  0  0  0  0  0  0  0  0  0  0  0
   -0.0475   -2.9801   -0.0000 C   0  0  0  0  0  0  0  0  0  0  0  0
   -2.6477   -2.9683   -0.0000 C   0  0  0  0  0  0  0  0  0  0  0  0
   -3.9537   -0.7243   -0.0000 C   0  0  0  0  0  0  0  0  0  0  0  0
    2.5646   -2.9801   -0.0000 C   0  0  0  0  0  0  0  0  0  0  0  0
    2.5883    1.5316   -0.0000 C   0  0  0  0  0  0  0  0  0  0  0  0
   -0.0712   -4.4643   -0.0000 C   0  0  0  0  0  0  0  0  0  0  0  0
   -3.9656   -2.2203   -0.0000 C   0  0  0  0  0  0  0  0  0  0  0  0
   -2.6596   -4.4643   -0.0000 C   0  0  0  0  0  0  0  0  0  0  0  0
    2.5290   -4.4643   -0.0000 C   0  0  0  0  0  0  0  0  0  0  0  0
    3.8587   -2.2321   -0.0000 C   0  0  0  0  0  0  0  0  0  0  0  0
    3.8825    2.2796   -0.0000 C   0  0  0  0  0  0  0  0  0  0  0  0
    1.2110   -5.2241   -0.0000 C   0  0  0  0  0  0  0  0  0  0  0  0
   -3.9775   -5.2123   -0.0000 O   0  0  0  0  0  0  0  0  0  0  0  0
    3.7994   -5.2123   -0.0000 N   0  0  0  0  0  0  0  0  0  0  0  0
    5.1291   -2.9801   -0.0000 C   0  0  0  0  0  0  0  0  0  0  0  0
    3.8706   -0.7124   -0.0000 C   0  0  0  0  0  0  0  0  0  0  0  0
    5.1054   -4.4643   -0.0000 C   0  0  0  0  0  0  0  0  0  0  0  0
    6.3996   -3.7163   -0.0000 C   0  0  0  0  0  0  0  0  0  0  0  0
    5.0817   -5.9603   -0.0000 C   0  0  0  0  0  0  0  0  0  0  0  0
  1  2  1  0  0  0  0
  1  3  1  0  0  0  0
  2  4  2  0  0  0  0
  2  5  1  0  0  0  0
  3  6  1  0  0  0  0
  3  7  1  0  0  0  0
  4  8  1  0  0  0  0
  4  9  1  0  0  0  0
  5 10  2  0  0  0  0
  6 11  1  0  0  0  0
  7 12  1  0  0  0  0
  8 13  1  0  0  0  0
  9 14  2  0  0  0  0
  9 15  1  0  0  0  0
 11 16  2  0  0  0  0
 11 17  1  0  0  0  0
 12 18  2  0  0  0  0
 13 19  2  0  0  0  0
 15 20  1  0  0  0  0
 16 21  1  0  0  0  0
 17 22  2  0  0  0  0
 17 23  1  0  0  0  0
 21 24  1  0  0  0  0
 24 25  1  0  0  0  0
 24 26  1  0  0  0  0
  6  8  2  0  0  0  0
 10 14  1  0  0  0  0
 16 19  1  0  0  0  0
 22 24  1  0  0  0  0
M  END
>  <MolRegNo>
3460

>  <m>
=

>  <Value>
1320

>  <Unit>
nM

>  <Type>
Ki

>  <pValue>
5.88

>  <Ligand Efficiency>
0.31

>  <Binding Efficiency>
16.92

>  <Surface Efficiency>
14.17

>  <Assay Index>
209883

>  <Assay Category>


>  <Assay Organism>
Homo sapiens

>  <Target ID>
56

>  <Target Name>
Androgen Receptor

>  <Target Organism>
Homo sapiens

>  <Target Description>
Target is a single protein chain

>  <Sequence Accession>
P10275

>  <Reference>
J Med Chem 46 (6), 1016-1030 (2003)

>  <Pubmed ID>
12620078

>  <DOI>
10.1021/jm020335m

$$$$
3154
Actelion Java MolfileCreator 1.0

 28 31  0  0  0  0  0  0  0  0999 V2000
    0.0000   -0.0000   -0.0000 F   0  0  0  0  0  0  0  0  0  0  0  0
   -0.0119    1.5056   -0.0000 C   0  0  0  0  0  0  0  0  0  0  0  0
   -1.3278    2.2644   -0.0000 F   0  0  0  0  0  0  0  0  0  0  0  0
    1.2804    2.2644   -0.0000 O   0  0  0  0  0  0  0  0  0  0  0  0
    1.2685    3.7819   -0.0000 C   0  0  0  0  0  0  0  0  0  0  0  0
    2.5489    4.5406   -0.0000 C   0  0  0  0  0  0  0  0  0  0  0  0
   -0.0474    4.5406   -0.0000 C   0  0  0  0  0  0  0  0  0  0  0  0
    2.5489    6.0581   -0.0000 C   0  0  0  0  0  0  0  0  0  0  0  0
    3.8412    3.7937   -0.0000 C   0  0  0  0  0  0  0  0  0  0  0  0
   -0.0593    6.0581   -0.0000 C   0  0  0  0  0  0  0  0  0  0  0  0
    3.8412    6.8169   -0.0000 O   0  0  0  0  0  0  0  0  0  0  0  0
    1.2330    6.8287   -0.0000 C   0  0  0  0  0  0  0  0  0  0  0  0
    5.1334    4.5525   -0.0000 C   0  0  0  0  0  0  0  0  0  0  0  0
    3.8174    2.3237   -0.0000 C   0  0  0  0  0  0  0  0  0  0  0  0
    5.1334    6.0818   -0.0000 C   0  0  0  0  0  0  0  0  0  0  0  0
    6.4138    3.8056   -0.0000 C   0  0  0  0  0  0  0  0  0  0  0  0
    5.0978    1.5649   -0.0000 C   0  0  0  0  0  0  0  0  0  0  0  0
    6.4256    6.8287   -0.0000 C   0  0  0  0  0  0  0  0  0  0  0  0
    6.3782    2.3118   -0.0000 C   0  0  0  0  0  0  0  0  0  0  0  0
    7.7060    4.5525   -0.0000 C   0  0  0  0  0  0  0  0  0  0  0  0
    6.4256    8.3462   -0.0000 C   0  0  0  0  0  0  0  0  0  0  0  0
    7.6468    1.5531   -0.0000 N   0  0  0  0  0  0  0  0  0  0  0  0
    8.9746    3.7937   -0.0000 C   0  0  0  0  0  0  0  0  0  0  0  0
    7.7179    6.0700   -0.0000 C   0  0  0  0  0  0  0  0  0  0  0  0
    7.7179    9.1050   -0.0000 C   0  0  0  0  0  0  0  0  0  0  0  0
    8.9509    2.3000   -0.0000 C   0  0  0  0  0  0  0  0  0  0  0  0
    8.9271    0.8062   -0.0000 C   0  0  0  0  0  0  0  0  0  0  0  0
   10.2431    3.0587   -0.0000 C   0  0  0  0  0  0  0  0  0  0  0  0
  1  2  1  0  0  0  0
  2  3  1  0  0  0  0
  2  4  1  0  0  0  0
  4  5  1  0  0  0  0
  5  6  2  0  0  0  0
  5  7  1  0  0  0  0
  6  8  1  0  0  0  0
  6  9  1  0  0  0  0
  7 10  2  0  0  0  0
  8 11  1  0  0  0  0
  8 12  2  0  0  0  0
  9 13  2  0  0  0  0
  9 14  1  0  0  0  0
 11 15  1  0  0  0  0
 13 16  1  0  0  0  0
 14 17  2  0  0  0  0
 15 18  1  0  0  0  0
 16 19  2  0  0  0  0
 16 20  1  0  0  0  0
 18 21  1  0  0  0  0
 19 22  1  0  0  0  0
 20 23  2  0  0  0  0
 20 24  1  0  0  0  0
 21 25  2  0  0  0  0
 22 26  1  0  0  0  0
 26 27  1  0  0  0  0
 26 28  1  0  0  0  0
 10 12  1  0  0  0  0
 13 15  1  0  0  0  0
 17 19  1  0  0  0  0
 23 26  1  0  0  0  0
M  END
>  <MolRegNo>
3154

>  <m>
=

>  <Value>
96.3

>  <Unit>
nM

>  <Type>
Ki

>  <pValue>
7.02

>  <Ligand Efficiency>
0.34

>  <Binding Efficiency>
18.3

>  <Surface Efficiency>
23.01

>  <Assay Index>
209883

>  <Assay Category>


>  <Assay Organism>
Homo sapiens

>  <Target ID>
56

>  <Target Name>
Androgen Receptor

>  <Target Organism>
Homo sapiens

>  <Target Description>
Target is a single protein chain

>  <Sequence Accession>
P10275

>  <Reference>
J Med Chem 46 (6), 1016-1030 (2003)

>  <Pubmed ID>
12620078

>  <DOI>
10.1021/jm020335m

$$$$
3381
Actelion Java MolfileCreator 1.0

 26 29  0  0  0  0  0  0  0  0999 V2000
    0.0000   -0.0000   -0.0000 S   0  0  0  0  0  0  0  0  0  0  0  0
   -0.0119    1.5180   -0.0000 C   0  0  0  0  0  0  0  0  0  0  0  0
   -1.3164   -0.7353   -0.0000 C   0  0  0  0  0  0  0  0  0  0  0  0
    1.2690    2.2771   -0.0000 C   0  0  0  0  0  0  0  0  0  0  0  0
   -1.3283    2.2771   -0.0000 C   0  0  0  0  0  0  0  0  0  0  0  0
    1.2690    3.7951   -0.0000 C   0  0  0  0  0  0  0  0  0  0  0  0
    2.5617    1.5299   -0.0000 C   0  0  0  0  0  0  0  0  0  0  0  0
   -1.3401    3.7951   -0.0000 C   0  0  0  0  0  0  0  0  0  0  0  0
    2.5617    4.5541   -0.0000 O   0  0  0  0  0  0  0  0  0  0  0  0
   -0.0474    4.5660   -0.0000 C   0  0  0  0  0  0  0  0  0  0  0  0
    3.8544    2.3008   -0.0000 C   0  0  0  0  0  0  0  0  0  0  0  0
    2.5380    0.0593   -0.0000 C   0  0  0  0  0  0  0  0  0  0  0  0
    3.8544    3.8188   -0.0000 C   0  0  0  0  0  0  0  0  0  0  0  0
    5.1353    1.5536   -0.0000 C   0  0  0  0  0  0  0  0  0  0  0  0
    3.8188   -0.6997   -0.0000 C   0  0  0  0  0  0  0  0  0  0  0  0
    5.1471    4.5660   -0.0000 C   0  0  0  0  0  0  0  0  0  0  0  0
    5.0997    0.0593   -0.0000 C   0  0  0  0  0  0  0  0  0  0  0  0
    6.4280    2.3008   -0.0000 C   0  0  0  0  0  0  0  0  0  0  0  0
    5.1471    6.0840   -0.0000 C   0  0  0  0  0  0  0  0  0  0  0  0
    6.3687   -0.6997   -0.0000 N   0  0  0  0  0  0  0  0  0  0  0  0
    7.6970    1.5418   -0.0000 C   0  0  0  0  0  0  0  0  0  0  0  0
    6.4398    3.8188   -0.0000 C   0  0  0  0  0  0  0  0  0  0  0  0
    6.4398    6.8431   -0.0000 C   0  0  0  0  0  0  0  0  0  0  0  0
    7.6732    0.0474   -0.0000 C   0  0  0  0  0  0  0  0  0  0  0  0
    8.9659    0.8065   -0.0000 C   0  0  0  0  0  0  0  0  0  0  0  0
    7.6495   -1.4469   -0.0000 C   0  0  0  0  0  0  0  0  0  0  0  0
  1  2  1  0  0  0  0
  1  3  1  0  0  0  0
  2  4  2  0  0  0  0
  2  5  1  0  0  0  0
  4  6  1  0  0  0  0
  4  7  1  0  0  0  0
  5  8  2  0  0  0  0
  6  9  1  0  0  0  0
  6 10  2  0  0  0  0
  7 11  2  0  0  0  0
  7 12  1  0  0  0  0
  9 13  1  0  0  0  0
 11 14  1  0  0  0  0
 12 15  2  0  0  0  0
 13 16  1  0  0  0  0
 14 17  2  0  0  0  0
 14 18  1  0  0  0  0
 16 19  1  0  0  0  0
 17 20  1  0  0  0  0
 18 21  2  0  0  0  0
 18 22  1  0  0  0  0
 19 23  2  0  0  0  0
 20 24  1  0  0  0  0
 24 25  1  0  0  0  0
 24 26  1  0  0  0  0
  8 10  1  0  0  0  0
 11 13  1  0  0  0  0
 15 17  1  0  0  0  0
 21 24  1  0  0  0  0
M  END
>  <MolRegNo>
3381

>  <m>
=

>  <Value>
2460

>  <Unit>
nM

>  <Type>
Ki

>  <pValue>
5.61

>  <Ligand Efficiency>
0.29

>  <Binding Efficiency>
15.43

>  <Surface Efficiency>
26.38

>  <Assay Index>
209883

>  <Assay Category>


>  <Assay Organism>
Homo sapiens

>  <Target ID>
56

>  <Target Name>
Androgen Receptor

>  <Target Organism>
Homo sapiens

>  <Target Description>
Target is a single protein chain

>  <Sequence Accession>
P10275

>  <Reference>
J Med Chem 46 (6), 1016-1030 (2003)

>  <Pubmed ID>
12620078

>  <DOI>
10.1021/jm020335m

$$$$
3431
Actelion Java MolfileCreator 1.0

 26 29  0  0  0  0  0  0  0  0999 V2000
    0.0000   -0.0000   -0.0000 O   0  0  0  0  0  0  0  0  0  0  0  0
   -1.3185   -0.7483   -0.0000 C   0  0  0  0  0  0  0  0  0  0  0  0
    1.2947   -0.7483   -0.0000 C   0  0  0  0  0  0  0  0  0  0  0  0
   -1.3422   -2.2450   -0.0000 C   0  0  0  0  0  0  0  0  0  0  0  0
   -2.6370    0.0356   -0.0000 C   0  0  0  0  0  0  0  0  0  0  0  0
    1.2829   -2.2450   -0.0000 C   0  0  0  0  0  0  0  0  0  0  0  0
    2.5895    0.0119   -0.0000 C   0  0  0  0  0  0  0  0  0  0  0  0
   -2.6489   -2.9696   -0.0000 C   0  0  0  0  0  0  0  0  0  0  0  0
   -0.0475   -2.9815   -0.0000 C   0  0  0  0  0  0  0  0  0  0  0  0
   -3.9555   -0.7246   -0.0000 C   0  0  0  0  0  0  0  0  0  0  0  0
    2.5657   -2.9815   -0.0000 C   0  0  0  0  0  0  0  0  0  0  0  0
    2.5895    1.5323   -0.0000 C   0  0  0  0  0  0  0  0  0  0  0  0
   -2.6607   -4.4662   -0.0000 C   0  0  0  0  0  0  0  0  0  0  0  0
   -3.9674   -2.2212   -0.0000 C   0  0  0  0  0  0  0  0  0  0  0  0
   -0.0713   -4.4662   -0.0000 C   0  0  0  0  0  0  0  0  0  0  0  0
    2.5301   -4.4662   -0.0000 C   0  0  0  0  0  0  0  0  0  0  0  0
    3.8605   -2.2331   -0.0000 C   0  0  0  0  0  0  0  0  0  0  0  0
    3.8842    2.2806   -0.0000 C   0  0  0  0  0  0  0  0  0  0  0  0
   -2.6726   -5.9629   -0.0000 C   0  0  0  0  0  0  0  0  0  0  0  0
    1.2116   -5.2265   -0.0000 C   0  0  0  0  0  0  0  0  0  0  0  0
    3.8011   -5.2146   -0.0000 N   0  0  0  0  0  0  0  0  0  0  0  0
    5.1314   -2.9815   -0.0000 C   0  0  0  0  0  0  0  0  0  0  0  0
    3.8723   -0.7127   -0.0000 C   0  0  0  0  0  0  0  0  0  0  0  0
    5.1077   -4.4662   -0.0000 C   0  0  0  0  0  0  0  0  0  0  0  0
    5.0839   -5.9629   -0.0000 C   0  0  0  0  0  0  0  0  0  0  0  0
    6.4024   -3.7179   -0.0000 C   0  0  0  0  0  0  0  0  0  0  0  0
  1  2  1  0  0  0  0
  1  3  1  0  0  0  0
  2  4  2  0  0  0  0
  2  5  1  0  0  0  0
  3  6  1  0  0  0  0
  3  7  1  0  0  0  0
  4  8  1  0  0  0  0
  4  9  1  0  0  0  0
  5 10  2  0  0  0  0
  6 11  1  0  0  0  0
  7 12  1  0  0  0  0
  8 13  1  0  0  0  0
  8 14  2  0  0  0  0
  9 15  1  0  0  0  0
 11 16  2  0  0  0  0
 11 17  1  0  0  0  0
 12 18  2  0  0  0  0
 13 19  3  0  0  0  0
 15 20  2  0  0  0  0
 16 21  1  0  0  0  0
 17 22  2  0  0  0  0
 17 23  1  0  0  0  0
 21 24  1  0  0  0  0
 24 25  1  0  0  0  0
 24 26  1  0  0  0  0
  6  9  2  0  0  0  0
 10 14  1  0  0  0  0
 16 20  1  0  0  0  0
 22 24  1  0  0  0  0
M  END
>  <MolRegNo>
3431

>  <m>
=

>  <Value>
650

>  <Unit>
nM

>  <Type>
Ki

>  <pValue>
6.19

>  <Ligand Efficiency>
0.32

>  <Binding Efficiency>
18.12

>  <Surface Efficiency>
29.1

>  <Assay Index>
209883

>  <Assay Category>


>  <Assay Organism>
Homo sapiens

>  <Target ID>
56

>  <Target Name>
Androgen Receptor

>  <Target Organism>
Homo sapiens

>  <Target Description>
Target is a single protein chain

>  <Sequence Accession>
P10275

>  <Reference>
J Med Chem 46 (6), 1016-1030 (2003)

>  <Pubmed ID>
12620078

>  <DOI>
10.1021/jm020335m

$$$$
3314
Actelion Java MolfileCreator 1.0

 25 28  0  0  0  0  0  0  0  0999 V2000
    0.0000   -0.0000   -0.0000 O   0  0  0  0  0  0  0  0  0  0  0  0
   -1.3176   -0.7360   -0.0000 C   0  0  0  0  0  0  0  0  0  0  0  0
    1.2939   -0.7360   -0.0000 C   0  0  0  0  0  0  0  0  0  0  0  0
   -1.3414   -2.2317   -0.0000 C   0  0  0  0  0  0  0  0  0  0  0  0
   -2.6353    0.0356   -0.0000 C   0  0  0  0  0  0  0  0  0  0  0  0
    1.2820   -2.2317   -0.0000 C   0  0  0  0  0  0  0  0  0  0  0  0
    2.5878    0.0119   -0.0000 C   0  0  0  0  0  0  0  0  0  0  0  0
   -2.6471   -2.9677   -0.0000 C   0  0  0  0  0  0  0  0  0  0  0  0
   -0.0475   -2.9795   -0.0000 C   0  0  0  0  0  0  0  0  0  0  0  0
   -3.9529   -0.7122   -0.0000 C   0  0  0  0  0  0  0  0  0  0  0  0
    2.5641   -2.9795   -0.0000 C   0  0  0  0  0  0  0  0  0  0  0  0
    2.5878    1.5313   -0.0000 C   0  0  0  0  0  0  0  0  0  0  0  0
   -2.6590   -4.4634   -0.0000 O   0  0  0  0  0  0  0  0  0  0  0  0
   -3.9648   -2.2079   -0.0000 C   0  0  0  0  0  0  0  0  0  0  0  0
   -0.0712   -4.4515   -0.0000 C   0  0  0  0  0  0  0  0  0  0  0  0
    2.5284   -4.4752   -0.0000 C   0  0  0  0  0  0  0  0  0  0  0  0
    3.8580   -2.2317   -0.0000 C   0  0  0  0  0  0  0  0  0  0  0  0
    3.8817    2.2910   -0.0000 C   0  0  0  0  0  0  0  0  0  0  0  0
    1.2108   -5.2112   -0.0000 C   0  0  0  0  0  0  0  0  0  0  0  0
    3.7986   -5.2349   -0.0000 N   0  0  0  0  0  0  0  0  0  0  0  0
    5.1281   -2.9914   -0.0000 C   0  0  0  0  0  0  0  0  0  0  0  0
    3.8698   -0.7122   -0.0000 C   0  0  0  0  0  0  0  0  0  0  0  0
    5.1044   -4.4871   -0.0000 C   0  0  0  0  0  0  0  0  0  0  0  0
    6.3983   -3.7274   -0.0000 C   0  0  0  0  0  0  0  0  0  0  0  0
    5.0806   -5.9828   -0.0000 C   0  0  0  0  0  0  0  0  0  0  0  0
  1  2  1  0  0  0  0
  1  3  1  0  0  0  0
  2  4  2  0  0  0  0
  2  5  1  0  0  0  0
  3  6  1  0  0  0  0
  3  7  1  0  0  0  0
  4  8  1  0  0  0  0
  4  9  1  0  0  0  0
  5 10  2  0  0  0  0
  6 11  1  0  0  0  0
  7 12  1  0  0  0  0
  8 13  1  0  0  0  0
  8 14  2  0  0  0  0
  9 15  1  0  0  0  0
 11 16  2  0  0  0  0
 11 17  1  0  0  0  0
 12 18  2  0  0  0  0
 15 19  2  0  0  0  0
 16 20  1  0  0  0  0
 17 21  2  0  0  0  0
 17 22  1  0  0  0  0
 20 23  1  0  0  0  0
 23 24  1  0  0  0  0
 23 25  1  0  0  0  0
  6  9  2  0  0  0  0
 10 14  1  0  0  0  0
 16 19  1  0  0  0  0
 21 23  1  0  0  0  0
M  END
>  <MolRegNo>
3314

>  <m>
=

>  <Value>
2060

>  <Unit>
nM

>  <Type>
Ki

>  <pValue>
5.69

>  <Ligand Efficiency>
0.31

>  <Binding Efficiency>
17.05

>  <Surface Efficiency>
13.7

>  <Assay Index>
209883

>  <Assay Category>


>  <Assay Organism>
Homo sapiens

>  <Target ID>
56

>  <Target Name>
Androgen Receptor

>  <Target Organism>
Homo sapiens

>  <Target Description>
Target is a single protein chain

>  <Sequence Accession>
P10275

>  <Reference>
J Med Chem 46 (6), 1016-1030 (2003)

>  <Pubmed ID>
12620078

>  <DOI>
10.1021/jm020335m

$$$$
27370
Actelion Java MolfileCreator 1.0

 26 29  0  0  1  0  0  0  0  0999 V2000
    0.0000   -0.0000   -0.0000 O   0  0  0  0  0  0  0  0  0  0  0  0
    1.2966   -0.7494   -0.0000 C   0  0  0  0  0  0  0  0  0  0  0  0
    1.2847   -2.2483   -0.0000 C   0  0  0  0  0  0  0  0  0  0  0  0
    2.5932    0.0238   -0.0000 C   0  0  0  0  0  0  0  0  0  0  0  0
    2.5813   -2.9858   -0.0000 C   0  0  0  0  0  0  0  0  0  0  0  0
    3.8898   -0.7256   -0.0000 C   0  0  0  0  0  0  0  0  0  0  0  0
    3.8779   -2.2245   -0.0000 C   0  0  0  0  0  0  0  0  0  0  0  0
    2.5694   -4.4846   -0.0000 C   0  0  0  0  0  0  0  0  0  0  0  0
    5.1746   -2.9620   -0.0000 C   0  0  0  0  0  0  0  0  0  0  0  0
    5.1746   -1.4632   -0.0000 C   0  0  0  0  0  0  0  0  0  0  0  0
    3.8660   -5.2221   -0.0000 C   0  0  0  0  0  0  0  0  0  0  0  0
    6.4712   -2.2007   -0.0000 C   0  0  0  0  0  0  0  0  0  0  0  0
    5.1627   -4.4608   -0.0000 C   0  0  0  0  0  0  0  0  0  0  0  0
    6.4593   -0.6780   -0.0000 O   0  0  0  0  0  0  0  0  0  0  0  0
    7.7678   -2.9382   -0.0000 C   0  0  0  0  0  0  0  0  0  0  0  0
    6.4593   -5.1983   -0.0000 C   0  0  0  0  0  0  0  0  0  0  0  0
    7.7559   -4.4370   -0.0000 C   0  0  0  0  0  0  0  0  0  0  0  0
    6.7567   -6.6615   -0.0000 C   0  0  0  0  0  0  0  0  0  0  0  0
    8.8622   -5.4363   -0.0000 C   0  0  0  0  0  0  0  0  0  0  0  0
    9.1239   -3.8066   -0.0000 C   0  0  0  0  0  0  0  0  0  0  0  0
    8.2436   -6.8042   -0.0000 C   0  0  0  0  0  0  0  0  0  0  0  0
    9.9328   -6.4831   -0.0000 O   0  0  0  0  0  0  0  0  0  0  0  0
   10.3134   -5.0437   -0.0000 C   0  0  0  0  0  0  0  0  0  0  0  0
   10.7060   -3.5806   -0.0000 O   0  0  0  0  0  0  0  0  0  0  0  0
   11.3602   -6.1143   -0.0000 C   0  0  0  0  0  0  0  0  0  0  0  0
   12.8115   -5.7218   -0.0000 O   0  0  0  0  0  0  0  0  0  0  0  0
  1  2  2  0  0  0  0
  2  3  1  0  0  0  0
  2  4  1  0  0  0  0
  3  5  2  0  0  0  0
  4  6  2  0  0  0  0
  5  7  1  0  0  0  0
  5  8  1  0  0  0  0
  7  9  1  0  0  0  0
  7 10  1  1  0  0  0
  8 11  1  0  0  0  0
  9 12  1  1  0  0  0
  9 13  1  0  0  0  0
 12 14  1  1  0  0  0
 12 15  1  0  0  0  0
 13 16  1  0  0  0  0
 15 17  1  0  0  0  0
 16 18  1  1  0  0  0
 17 19  1  0  0  0  0
 17 20  1  1  0  0  0
 18 21  1  0  0  0  0
 19 22  1  6  0  0  0
 19 23  1  0  0  0  0
 23 24  2  0  0  0  0
 23 25  1  0  0  0  0
 25 26  1  0  0  0  0
  6  7  1  0  0  0  0
 13 11  1  6  0  0  0
 16 17  1  0  0  0  0
 19 21  1  0  0  0  0
M  END
>  <MolRegNo>
27370

>  <m>
=

>  <Value>
2760

>  <Unit>
nM

>  <Type>
Ki

>  <pValue>
5.56

>  <Ligand Efficiency>
0.29

>  <Binding Efficiency>
15.42

>  <Surface Efficiency>
5.86

>  <Assay Index>
209883

>  <Assay Category>


>  <Assay Organism>
Homo sapiens

>  <Target ID>
56

>  <Target Name>
Androgen Receptor

>  <Target Organism>
Homo sapiens

>  <Target Description>
Target is a single protein chain

>  <Sequence Accession>
P10275

>  <Reference>
J Med Chem 46 (6), 1016-1030 (2003)

>  <Pubmed ID>
12620078

>  <DOI>
10.1021/jm020335m

$$$$
3374
Actelion Java MolfileCreator 1.0

 26 29  0  0  0  0  0  0  0  0999 V2000
    0.0000   -0.0000   -0.0000 O   0  0  0  0  0  0  0  0  0  0  0  0
   -1.3174   -0.7358   -0.0000 C   0  0  0  0  0  0  0  0  0  0  0  0
    1.2936   -0.7358   -0.0000 C   0  0  0  0  0  0  0  0  0  0  0  0
   -1.3411   -2.2312   -0.0000 C   0  0  0  0  0  0  0  0  0  0  0  0
   -2.6347    0.0356   -0.0000 C   0  0  0  0  0  0  0  0  0  0  0  0
    1.2818   -2.2312   -0.0000 C   0  0  0  0  0  0  0  0  0  0  0  0
    2.5872    0.0119   -0.0000 C   0  0  0  0  0  0  0  0  0  0  0  0
   -0.0475   -2.9789   -0.0000 C   0  0  0  0  0  0  0  0  0  0  0  0
   -2.6466   -2.9670   -0.0000 C   0  0  0  0  0  0  0  0  0  0  0  0
   -3.9521   -0.7121   -0.0000 C   0  0  0  0  0  0  0  0  0  0  0  0
    2.5635   -2.9789   -0.0000 C   0  0  0  0  0  0  0  0  0  0  0  0
    2.5872    1.5310   -0.0000 C   0  0  0  0  0  0  0  0  0  0  0  0
   -0.0712   -4.4505   -0.0000 C   0  0  0  0  0  0  0  0  0  0  0  0
   -3.9639   -2.2075   -0.0000 C   0  0  0  0  0  0  0  0  0  0  0  0
   -2.6585   -4.4624   -0.0000 C   0  0  0  0  0  0  0  0  0  0  0  0
    2.5279   -4.4743   -0.0000 C   0  0  0  0  0  0  0  0  0  0  0  0
    3.8571   -2.2312   -0.0000 C   0  0  0  0  0  0  0  0  0  0  0  0
    3.8809    2.2905   -0.0000 C   0  0  0  0  0  0  0  0  0  0  0  0
    1.2105   -5.2101   -0.0000 C   0  0  0  0  0  0  0  0  0  0  0  0
   -3.9758   -5.1982   -0.0000 C   0  0  0  0  0  0  0  0  0  0  0  0
    3.7978   -5.2338   -0.0000 N   0  0  0  0  0  0  0  0  0  0  0  0
    5.1270   -2.9908   -0.0000 C   0  0  0  0  0  0  0  0  0  0  0  0
    3.8690   -0.7121   -0.0000 C   0  0  0  0  0  0  0  0  0  0  0  0
    5.1033   -4.4861   -0.0000 C   0  0  0  0  0  0  0  0  0  0  0  0
    5.0795   -5.9815   -0.0000 C   0  0  0  0  0  0  0  0  0  0  0  0
    6.3969   -3.7266   -0.0000 C   0  0  0  0  0  0  0  0  0  0  0  0
  1  2  1  0  0  0  0
  1  3  1  0  0  0  0
  2  4  2  0  0  0  0
  2  5  1  0  0  0  0
  3  6  1  0  0  0  0
  3  7  1  0  0  0  0
  4  8  1  0  0  0  0
  4  9  1  0  0  0  0
  5 10  2  0  0  0  0
  6 11  1  0  0  0  0
  7 12  1  0  0  0  0
  8 13  1  0  0  0  0
  9 14  2  0  0  0  0
  9 15  1  0  0  0  0
 11 16  2  0  0  0  0
 11 17  1  0  0  0  0
 12 18  2  0  0  0  0
 13 19  2  0  0  0  0
 15 20  2  0  0  0  0
 16 21  1  0  0  0  0
 17 22  2  0  0  0  0
 17 23  1  0  0  0  0
 21 24  1  0  0  0  0
 24 25  1  0  0  0  0
 24 26  1  0  0  0  0
  6  8  2  0  0  0  0
 10 14  1  0  0  0  0
 16 19  1  0  0  0  0
 22 24  1  0  0  0  0
M  END
>  <MolRegNo>
3374

>  <m>
=

>  <Value>
239

>  <Unit>
nM

>  <Type>
Ki

>  <pValue>
6.62

>  <Ligand Efficiency>
0.35

>  <Binding Efficiency>
19.28

>  <Surface Efficiency>
31.15

>  <Assay Index>
209883

>  <Assay Category>


>  <Assay Organism>
Homo sapiens

>  <Target ID>
56

>  <Target Name>
Androgen Receptor

>  <Target Organism>
Homo sapiens

>  <Target Description>
Target is a single protein chain

>  <Sequence Accession>
P10275

>  <Reference>
J Med Chem 46 (6), 1016-1030 (2003)

>  <Pubmed ID>
12620078

>  <DOI>
10.1021/jm020335m

$$$$
49882
Actelion Java MolfileCreator 1.0

 32 36  0  0  1  0  0  0  0  0999 V2000
    0.0000   -0.0000   -0.0000 F   0  0  0  0  0  0  0  0  0  0  0  0
   -1.3710   -0.0000   -0.0000 C   0  0  0  0  0  0  0  0  0  0  0  0
   -0.3696   -1.1921   -0.0000 F   0  0  0  0  0  0  0  0  0  0  0  0
   -0.4053    1.2398   -0.0000 F   0  0  0  0  0  0  0  0  0  0  0  0
   -2.8850   -0.0119   -0.0000 C   0  0  0  0  0  0  0  0  0  0  0  0
   -3.6241   -1.2994   -0.0000 C   0  0  0  0  0  0  0  0  0  0  0  0
   -3.6599    1.2994   -0.0000 C   0  0  0  0  0  0  0  0  0  0  0  0
   -5.1382   -1.2994   -0.0000 C   0  0  0  0  0  0  0  0  0  0  0  0
   -5.1858    1.2875   -0.0000 C   0  0  0  0  0  0  0  0  0  0  0  0
   -5.9250   -0.0000   -0.0000 C   0  0  0  0  0  0  0  0  0  0  0  0
   -5.9011   -2.5870   -0.0000 C   0  0  0  0  0  0  0  0  0  0  0  0
   -7.2125   -1.8121   -0.0000 O   0  0  0  0  0  0  0  0  0  0  0  0
   -5.9131   -4.0772   -0.0000 C   0  0  0  0  0  0  0  0  0  0  0  0
   -8.5239   -2.5631   -0.0000 C   0  0  0  0  0  0  0  0  0  0  0  0
   -7.2244   -4.8163   -0.0000 C   0  0  0  0  0  0  0  0  0  0  0  0
   -4.6255   -4.8163   -0.0000 C   0  0  0  0  0  0  0  0  0  0  0  0
   -8.5477   -4.0533   -0.0000 C   0  0  0  0  0  0  0  0  0  0  0  0
   -9.8352   -1.8001   -0.0000 C   0  0  0  0  0  0  0  0  0  0  0  0
   -7.2602   -6.2945   -0.0000 C   0  0  0  0  0  0  0  0  0  0  0  0
   -4.6494   -6.3065   -0.0000 C   0  0  0  0  0  0  0  0  0  0  0  0
   -3.3380   -4.0652   -0.0000 C   0  0  0  0  0  0  0  0  0  0  0  0
   -9.8591   -4.7924   -0.0000 C   0  0  0  0  0  0  0  0  0  0  0  0
  -11.1466   -2.5393   -0.0000 C   0  0  0  0  0  0  0  0  0  0  0  0
   -5.9727   -7.0456   -0.0000 C   0  0  0  0  0  0  0  0  0  0  0  0
   -3.3857   -7.0456   -0.0000 N   0  0  0  0  0  0  0  0  0  0  0  0
   -2.0624   -4.8163   -0.0000 C   0  0  0  0  0  0  0  0  0  0  0  0
   -3.3499   -2.5512   -0.0000 C   0  0  0  0  0  0  0  0  0  0  0  0
  -11.1704   -4.0295   -0.0000 C   0  0  0  0  0  0  0  0  0  0  0  0
   -2.0982   -6.2945   -0.0000 C   0  0  0  0  0  0  0  0  0  0  0  0
   -0.7749   -4.0533   -0.0000 O   0  0  0  0  0  0  0  0  0  0  0  0
   -0.6080   -6.2826   -0.0000 C   0  0  0  0  0  0  0  0  0  0  0  0
   -2.1101   -7.7847   -0.0000 C   0  0  0  0  0  0  0  0  0  0  0  0
  1  2  1  0  0  0  0
  2  3  1  0  0  0  0
  2  4  1  0  0  0  0
  2  5  1  0  0  0  0
  5  6  2  0  0  0  0
  5  7  1  0  0  0  0
  6  8  1  0  0  0  0
  7  9  2  0  0  0  0
  8 10  2  0  0  0  0
 11  8  1  1  0  0  0
 11 12  1  0  0  0  0
 11 13  1  0  0  0  0
 12 14  1  0  0  0  0
 13 15  2  0  0  0  0
 13 16  1  0  0  0  0
 14 17  2  0  0  0  0
 14 18  1  0  0  0  0
 15 19  1  0  0  0  0
 16 20  2  0  0  0  0
 16 21  1  0  0  0  0
 17 22  1  0  0  0  0
 18 23  2  0  0  0  0
 19 24  2  0  0  0  0
 20 25  1  0  0  0  0
 21 26  1  0  0  0  0
 21 27  1  1  0  0  0
 22 28  2  0  0  0  0
 25 29  1  0  0  0  0
 26 30  2  0  0  0  0
 29 31  1  0  0  0  0
 29 32  1  0  0  0  0
  9 10  1  0  0  0  0
 15 17  1  0  0  0  0
 20 24  1  0  0  0  0
 23 28  1  0  0  0  0
 26 29  1  0  0  0  0
M  END
>  <MolRegNo>
49882

>  <m>
=

>  <Value>
807

>  <Unit>
nM

>  <Type>
Ki

>  <pValue>
6.09

>  <Ligand Efficiency>
0.26

>  <Binding Efficiency>
13.93

>  <Surface Efficiency>
15.9

>  <Assay Index>
36206

>  <Assay Category>


>  <Assay Organism>


>  <Target ID>
56

>  <Target Name>
Androgen Receptor

>  <Target Organism>
Homo sapiens

>  <Target Description>
Target is a single protein chain

>  <Sequence Accession>
P10275

>  <Reference>
J Med Chem 42 (8), 1466-1472 (1999)

>  <Pubmed ID>
10212133

>  <DOI>
10.1021/jm980723h

$$$$
49660
Actelion Java MolfileCreator 1.0

 29 33  0  0  1  0  0  0  0  0999 V2000
    0.0000   -0.0000   -0.0000 Cl  0  0  0  0  0  0  0  0  0  0  0  0
   -0.7526   -1.2902   -0.0000 C   0  0  0  0  0  0  0  0  0  0  0  0
   -2.2698   -1.3021   -0.0000 C   0  0  0  0  0  0  0  0  0  0  0  0
    0.0000   -2.5804   -0.0000 C   0  0  0  0  0  0  0  0  0  0  0  0
   -3.0105   -2.5923   -0.0000 C   0  0  0  0  0  0  0  0  0  0  0  0
   -0.7526   -3.8706   -0.0000 C   0  0  0  0  0  0  0  0  0  0  0  0
   -2.2579   -3.8826   -0.0000 C   0  0  0  0  0  0  0  0  0  0  0  0
   -3.0105   -5.1728   -0.0000 C   0  0  0  0  0  0  0  0  0  0  0  0
   -4.3365   -4.4082   -0.0000 O   0  0  0  0  0  0  0  0  0  0  0  0
   -3.0224   -6.6780   -0.0000 C   0  0  0  0  0  0  0  0  0  0  0  0
   -5.6506   -5.1489   -0.0000 C   0  0  0  0  0  0  0  0  0  0  0  0
   -4.3485   -7.4067   -0.0000 C   0  0  0  0  0  0  0  0  0  0  0  0
   -1.7561   -7.4187   -0.0000 C   0  0  0  0  0  0  0  0  0  0  0  0
   -5.6626   -6.6421   -0.0000 C   0  0  0  0  0  0  0  0  0  0  0  0
   -6.9647   -4.3843   -0.0000 C   0  0  0  0  0  0  0  0  0  0  0  0
   -4.3723   -8.9000   -0.0000 C   0  0  0  0  0  0  0  0  0  0  0  0
   -1.7681   -8.9119   -0.0000 C   0  0  0  0  0  0  0  0  0  0  0  0
   -0.4659   -6.6660   -0.0000 C   0  0  0  0  0  0  0  0  0  0  0  0
   -6.9766   -7.3948   -0.0000 C   0  0  0  0  0  0  0  0  0  0  0  0
   -8.2788   -5.1369   -0.0000 C   0  0  0  0  0  0  0  0  0  0  0  0
   -3.0821   -9.6526   -0.0000 C   0  0  0  0  0  0  0  0  0  0  0  0
   -0.4898   -9.6407   -0.0000 N   0  0  0  0  0  0  0  0  0  0  0  0
    0.8243   -7.4067   -0.0000 C   0  0  0  0  0  0  0  0  0  0  0  0
   -0.4779   -5.1489   -0.0000 C   0  0  0  0  0  0  0  0  0  0  0  0
   -8.2907   -6.6302   -0.0000 C   0  0  0  0  0  0  0  0  0  0  0  0
    0.8004   -8.9000   -0.0000 C   0  0  0  0  0  0  0  0  0  0  0  0
    2.1145   -6.6541   -0.0000 O   0  0  0  0  0  0  0  0  0  0  0  0
    2.2937   -8.8881   -0.0000 C   0  0  0  0  0  0  0  0  0  0  0  0
    0.7765  -10.3933   -0.0000 C   0  0  0  0  0  0  0  0  0  0  0  0
  1  2  1  0  0  0  0
  2  3  2  0  0  0  0
  2  4  1  0  0  0  0
  3  5  1  0  0  0  0
  4  6  2  0  0  0  0
  5  7  2  0  0  0  0
  8  7  1  1  0  0  0
  8  9  1  0  0  0  0
  8 10  1  0  0  0  0
  9 11  1  0  0  0  0
 10 12  2  0  0  0  0
 10 13  1  0  0  0  0
 11 14  2  0  0  0  0
 11 15  1  0  0  0  0
 12 16  1  0  0  0  0
 13 17  2  0  0  0  0
 13 18  1  0  0  0  0
 14 19  1  0  0  0  0
 15 20  2  0  0  0  0
 16 21  2  0  0  0  0
 17 22  1  0  0  0  0
 18 23  1  0  0  0  0
 18 24  1  1  0  0  0
 19 25  2  0  0  0  0
 22 26  1  0  0  0  0
 23 27  2  0  0  0  0
 26 28  1  0  0  0  0
 26 29  1  0  0  0  0
  6  7  1  0  0  0  0
 12 14  1  0  0  0  0
 17 21  1  0  0  0  0
 20 25  1  0  0  0  0
 23 26  1  0  0  0  0
M  END
>  <MolRegNo>
49660

>  <m>
=

>  <Value>
698

>  <Unit>
nM

>  <Type>
Ki

>  <pValue>
6.16

>  <Ligand Efficiency>
0.29

>  <Binding Efficiency>
15.24

>  <Surface Efficiency>
16.06

>  <Assay Index>
36206

>  <Assay Category>


>  <Assay Organism>


>  <Target ID>
56

>  <Target Name>
Androgen Receptor

>  <Target Organism>
Homo sapiens

>  <Target Description>
Target is a single protein chain

>  <Sequence Accession>
P10275

>  <Reference>
J Med Chem 42 (8), 1466-1472 (1999)

>  <Pubmed ID>
10212133

>  <DOI>
10.1021/jm980723h

$$$$
50622
Actelion Java MolfileCreator 1.0

 29 33  0  0  0  0  0  0  0  0999 V2000
    0.0000   -0.0000   -0.0000 O   0  0  0  0  0  0  0  0  0  0  0  0
   -1.3067   -0.7365   -0.0000 C   0  0  0  0  0  0  0  0  0  0  0  0
   -1.3304   -2.2095   -0.0000 C   0  0  0  0  0  0  0  0  0  0  0  0
   -2.6015    0.0356   -0.0000 C   0  0  0  0  0  0  0  0  0  0  0  0
   -2.6371   -2.9341   -0.0000 N   0  0  0  0  0  0  0  0  0  0  0  0
   -1.3423   -3.6943   -0.0000 C   0  0  0  0  0  0  0  0  0  0  0  0
    0.1544   -2.1976   -0.0000 C   0  0  0  0  0  0  0  0  0  0  0  0
   -3.9081   -0.6890   -0.0000 C   0  0  0  0  0  0  0  0  0  0  0  0
   -2.6015    1.5561   -0.0000 C   0  0  0  0  0  0  0  0  0  0  0  0
   -3.9200   -2.1738   -0.0000 C   0  0  0  0  0  0  0  0  0  0  0  0
   -5.2148    0.0713   -0.0000 C   0  0  0  0  0  0  0  0  0  0  0  0
   -5.2386   -2.9103   -0.0000 C   0  0  0  0  0  0  0  0  0  0  0  0
   -6.5215   -0.6652   -0.0000 C   0  0  0  0  0  0  0  0  0  0  0  0
   -5.2267    1.5799   -0.0000 C   0  0  0  0  0  0  0  0  0  0  0  0
   -6.5452   -2.1382   -0.0000 C   0  0  0  0  0  0  0  0  0  0  0  0
   -7.8281    0.0950   -0.0000 C   0  0  0  0  0  0  0  0  0  0  0  0
   -6.5333    2.3520   -0.0000 O   0  0  0  0  0  0  0  0  0  0  0  0
   -3.9319    2.3401   -0.0000 C   0  0  0  0  0  0  0  0  0  0  0  0
   -7.8281    1.6036   -0.0000 C   0  0  0  0  0  0  0  0  0  0  0  0
   -9.1348   -0.6415   -0.0000 C   0  0  0  0  0  0  0  0  0  0  0  0
   -3.9438    3.8487   -0.0000 C   0  0  0  0  0  0  0  0  0  0  0  0
   -9.1348    2.3639   -0.0000 C   0  0  0  0  0  0  0  0  0  0  0  0
  -10.4415    0.1188   -0.0000 C   0  0  0  0  0  0  0  0  0  0  0  0
   -2.6609    4.6090   -0.0000 C   0  0  0  0  0  0  0  0  0  0  0  0
   -5.2386    4.6090   -0.0000 C   0  0  0  0  0  0  0  0  0  0  0  0
  -10.4415    1.6274   -0.0000 C   0  0  0  0  0  0  0  0  0  0  0  0
   -2.6727    6.0938   -0.0000 C   0  0  0  0  0  0  0  0  0  0  0  0
   -5.2504    6.0938   -0.0000 C   0  0  0  0  0  0  0  0  0  0  0  0
   -3.9794    6.8660   -0.0000 C   0  0  0  0  0  0  0  0  0  0  0  0
  1  2  2  0  0  0  0
  2  3  1  0  0  0  0
  2  4  1  0  0  0  0
  3  5  1  0  0  0  0
  3  6  1  0  0  0  0
  3  7  1  0  0  0  0
  4  8  1  0  0  0  0
  4  9  1  0  0  0  0
  5 10  1  0  0  0  0
  8 11  1  0  0  0  0
 10 12  1  0  0  0  0
 11 13  2  0  0  0  0
 11 14  1  0  0  0  0
 12 15  2  0  0  0  0
 13 16  1  0  0  0  0
 14 17  1  0  0  0  0
 14 18  2  0  0  0  0
 16 19  2  0  0  0  0
 16 20  1  0  0  0  0
 18 21  1  0  0  0  0
 19 22  1  0  0  0  0
 20 23  2  0  0  0  0
 21 24  2  0  0  0  0
 21 25  1  0  0  0  0
 22 26  2  0  0  0  0
 24 27  1  0  0  0  0
 25 28  2  0  0  0  0
 27 29  2  0  0  0  0
  8 10  2  0  0  0  0
 13 15  1  0  0  0  0
 17 19  1  0  0  0  0
 23 26  1  0  0  0  0
 28 29  1  0  0  0  0
M  END
>  <MolRegNo>
50622

>  <m>
=

>  <Value>
1196

>  <Unit>
nM

>  <Type>
Ki

>  <pValue>
5.92

>  <Ligand Efficiency>
0.28

>  <Binding Efficiency>
15.52

>  <Surface Efficiency>
15.45

>  <Assay Index>
36206

>  <Assay Category>


>  <Assay Organism>


>  <Target ID>
56

>  <Target Name>
Androgen Receptor

>  <Target Organism>
Homo sapiens

>  <Target Description>
Target is a single protein chain

>  <Sequence Accession>
P10275

>  <Reference>
J Med Chem 42 (8), 1466-1472 (1999)

>  <Pubmed ID>
10212133

>  <DOI>
10.1021/jm980723h

$$$$
49922
Actelion Java MolfileCreator 1.0

 28 32  0  0  1  0  0  0  0  0999 V2000
    0.0000   -0.0000   -0.0000 O   0  0  0  0  0  0  0  0  0  0  0  0
   -1.3029   -0.7344   -0.0000 C   0  0  0  0  0  0  0  0  0  0  0  0
   -1.3266   -2.2031   -0.0000 C   0  0  0  0  0  0  0  0  0  0  0  0
   -2.6058    0.0355   -0.0000 C   0  0  0  0  0  0  0  0  0  0  0  0
   -2.6295   -2.9375   -0.0000 N   0  0  0  0  0  0  0  0  0  0  0  0
    0.1540   -2.1913   -0.0000 C   0  0  0  0  0  0  0  0  0  0  0  0
   -1.3503   -3.6837   -0.0000 C   0  0  0  0  0  0  0  0  0  0  0  0
   -3.9088   -0.6988   -0.0000 C   0  0  0  0  0  0  0  0  0  0  0  0
   -2.6177    1.5398   -0.0000 C   0  0  0  0  0  0  0  0  0  0  0  0
   -3.9206   -2.1794   -0.0000 C   0  0  0  0  0  0  0  0  0  0  0  0
   -5.1998    0.0592   -0.0000 C   0  0  0  0  0  0  0  0  0  0  0  0
   -5.2354   -2.9256   -0.0000 C   0  0  0  0  0  0  0  0  0  0  0  0
   -6.5146   -0.6751   -0.0000 C   0  0  0  0  0  0  0  0  0  0  0  0
   -5.2117    1.5753   -0.0000 C   0  0  0  0  0  0  0  0  0  0  0  0
   -6.5383   -2.1439   -0.0000 C   0  0  0  0  0  0  0  0  0  0  0  0
   -7.8175    0.0829   -0.0000 C   0  0  0  0  0  0  0  0  0  0  0  0
   -6.5264    2.3453   -0.0000 O   0  0  0  0  0  0  0  0  0  0  0  0
   -4.4891    2.8901   -0.0000 C   0  0  0  0  0  0  0  0  0  0  0  0
   -7.8294    1.5872   -0.0000 C   0  0  0  0  0  0  0  0  0  0  0  0
   -9.1204   -0.6633   -0.0000 C   0  0  0  0  0  0  0  0  0  0  0  0
   -5.2591    4.1812   -0.0000 C   0  0  0  0  0  0  0  0  0  0  0  0
   -3.0086    2.9138   -0.0000 C   0  0  0  0  0  0  0  0  0  0  0  0
   -9.1323    2.3453   -0.0000 C   0  0  0  0  0  0  0  0  0  0  0  0
  -10.4233    0.0948   -0.0000 C   0  0  0  0  0  0  0  0  0  0  0  0
   -4.5484    5.4959   -0.0000 C   0  0  0  0  0  0  0  0  0  0  0  0
   -2.2742    4.2286   -0.0000 C   0  0  0  0  0  0  0  0  0  0  0  0
  -10.4352    1.6109   -0.0000 C   0  0  0  0  0  0  0  0  0  0  0  0
   -3.0559    5.5315   -0.0000 C   0  0  0  0  0  0  0  0  0  0  0  0
  1  2  2  0  0  0  0
  2  3  1  0  0  0  0
  2  4  1  0  0  0  0
  3  5  1  0  0  0  0
  3  6  1  0  0  0  0
  3  7  1  0  0  0  0
  4  8  1  0  0  0  0
  4  9  1  6  0  0  0
  5 10  1  0  0  0  0
  8 11  1  0  0  0  0
 10 12  1  0  0  0  0
 11 13  2  0  0  0  0
 11 14  1  0  0  0  0
 12 15  2  0  0  0  0
 13 16  1  0  0  0  0
 14 17  1  0  0  0  0
 14 18  1  1  0  0  0
 16 19  2  0  0  0  0
 16 20  1  0  0  0  0
 18 21  2  0  0  0  0
 18 22  1  0  0  0  0
 19 23  1  0  0  0  0
 20 24  2  0  0  0  0
 21 25  1  0  0  0  0
 22 26  2  0  0  0  0
 23 27  2  0  0  0  0
 25 28  2  0  0  0  0
  8 10  2  0  0  0  0
 13 15  1  0  0  0  0
 17 19  1  0  0  0  0
 24 27  1  0  0  0  0
 26 28  1  0  0  0  0
M  END
>  <MolRegNo>
49922

>  <m>
=

>  <Value>
732

>  <Unit>
nM

>  <Type>
Ki

>  <pValue>
6.13

>  <Ligand Efficiency>
0.3

>  <Binding Efficiency>
16.61

>  <Surface Efficiency>
16.01

>  <Assay Index>
36206

>  <Assay Category>


>  <Assay Organism>


>  <Target ID>
56

>  <Target Name>
Androgen Receptor

>  <Target Organism>
Homo sapiens

>  <Target Description>
Target is a single protein chain

>  <Sequence Accession>
P10275

>  <Reference>
J Med Chem 42 (8), 1466-1472 (1999)

>  <Pubmed ID>
10212133

>  <DOI>
10.1021/jm980723h

$$$$
49884
Actelion Java MolfileCreator 1.0

 29 33  0  0  1  0  0  0  0  0999 V2000
    0.0000   -0.0000   -0.0000 F   0  0  0  0  0  0  0  0  0  0  0  0
   -1.5105    0.0119   -0.0000 C   0  0  0  0  0  0  0  0  0  0  0  0
   -2.2716   -1.2845   -0.0000 C   0  0  0  0  0  0  0  0  0  0  0  0
   -2.2835    1.3202   -0.0000 C   0  0  0  0  0  0  0  0  0  0  0  0
   -3.7821   -1.2845   -0.0000 C   0  0  0  0  0  0  0  0  0  0  0  0
   -3.8059    1.3083   -0.0000 C   0  0  0  0  0  0  0  0  0  0  0  0
   -4.5552    0.0119   -0.0000 C   0  0  0  0  0  0  0  0  0  0  0  0
   -4.5314   -2.5809   -0.0000 C   0  0  0  0  0  0  0  0  0  0  0  0
   -5.8516   -1.8078   -0.0000 O   0  0  0  0  0  0  0  0  0  0  0  0
   -4.5433   -4.0794   -0.0000 C   0  0  0  0  0  0  0  0  0  0  0  0
   -7.1598   -2.5571   -0.0000 C   0  0  0  0  0  0  0  0  0  0  0  0
   -5.8635   -4.8168   -0.0000 C   0  0  0  0  0  0  0  0  0  0  0  0
   -3.2707   -4.8168   -0.0000 C   0  0  0  0  0  0  0  0  0  0  0  0
   -7.1717   -4.0438   -0.0000 C   0  0  0  0  0  0  0  0  0  0  0  0
   -8.4681   -1.7959   -0.0000 C   0  0  0  0  0  0  0  0  0  0  0  0
   -5.8872   -6.2916   -0.0000 C   0  0  0  0  0  0  0  0  0  0  0  0
   -3.2826   -6.3035   -0.0000 C   0  0  0  0  0  0  0  0  0  0  0  0
   -1.9862   -4.0557   -0.0000 C   0  0  0  0  0  0  0  0  0  0  0  0
   -8.4800   -4.7930   -0.0000 C   0  0  0  0  0  0  0  0  0  0  0  0
   -9.7764   -2.5333   -0.0000 C   0  0  0  0  0  0  0  0  0  0  0  0
   -4.6028   -7.0528   -0.0000 C   0  0  0  0  0  0  0  0  0  0  0  0
   -2.0100   -7.0409   -0.0000 N   0  0  0  0  0  0  0  0  0  0  0  0
   -0.7017   -4.8049   -0.0000 C   0  0  0  0  0  0  0  0  0  0  0  0
   -1.9981   -2.5452   -0.0000 C   0  0  0  0  0  0  0  0  0  0  0  0
   -9.7883   -4.0319   -0.0000 C   0  0  0  0  0  0  0  0  0  0  0  0
   -0.7255   -6.2797   -0.0000 C   0  0  0  0  0  0  0  0  0  0  0  0
    0.5828   -4.0438   -0.0000 O   0  0  0  0  0  0  0  0  0  0  0  0
   -0.7493   -7.7664   -0.0000 C   0  0  0  0  0  0  0  0  0  0  0  0
    0.7612   -6.2678   -0.0000 C   0  0  0  0  0  0  0  0  0  0  0  0
  1  2  1  0  0  0  0
  2  3  2  0  0  0  0
  2  4  1  0  0  0  0
  3  5  1  0  0  0  0
  4  6  2  0  0  0  0
  5  7  2  0  0  0  0
  8  5  1  1  0  0  0
  8  9  1  0  0  0  0
  8 10  1  0  0  0  0
  9 11  1  0  0  0  0
 10 12  2  0  0  0  0
 10 13  1  0  0  0  0
 11 14  2  0  0  0  0
 11 15  1  0  0  0  0
 12 16  1  0  0  0  0
 13 17  2  0  0  0  0
 13 18  1  0  0  0  0
 14 19  1  0  0  0  0
 15 20  2  0  0  0  0
 16 21  2  0  0  0  0
 17 22  1  0  0  0  0
 18 23  1  0  0  0  0
 18 24  1  6  0  0  0
 19 25  2  0  0  0  0
 22 26  1  0  0  0  0
 23 27  2  0  0  0  0
 26 28  1  0  0  0  0
 26 29  1  0  0  0  0
  6  7  1  0  0  0  0
 12 14  1  0  0  0  0
 17 21  1  0  0  0  0
 20 25  1  0  0  0  0
 23 26  1  0  0  0  0
M  END
>  <MolRegNo>
49884

>  <m>
=

>  <Value>
620

>  <Unit>
nM

>  <Type>
Ki

>  <pValue>
6.21

>  <Ligand Efficiency>
0.29

>  <Binding Efficiency>
16.02

>  <Surface Efficiency>
16.2

>  <Assay Index>
36206

>  <Assay Category>


>  <Assay Organism>


>  <Target ID>
56

>  <Target Name>
Androgen Receptor

>  <Target Organism>
Homo sapiens

>  <Target Description>
Target is a single protein chain

>  <Sequence Accession>
P10275

>  <Reference>
J Med Chem 42 (8), 1466-1472 (1999)

>  <Pubmed ID>
10212133

>  <DOI>
10.1021/jm980723h

$$$$
49924
Actelion Java MolfileCreator 1.0

 29 33  0  0  1  0  0  0  0  0999 V2000
    0.0000   -0.0000   -0.0000 F   0  0  0  0  0  0  0  0  0  0  0  0
   -1.5140    0.0119   -0.0000 C   0  0  0  0  0  0  0  0  0  0  0  0
   -2.2531   -1.2756   -0.0000 C   0  0  0  0  0  0  0  0  0  0  0  0
   -2.2889    1.3233   -0.0000 C   0  0  0  0  0  0  0  0  0  0  0  0
   -3.7671   -1.2756   -0.0000 C   0  0  0  0  0  0  0  0  0  0  0  0
   -3.8148    1.3113   -0.0000 C   0  0  0  0  0  0  0  0  0  0  0  0
   -4.5540    0.0238   -0.0000 C   0  0  0  0  0  0  0  0  0  0  0  0
   -4.5301   -2.5631   -0.0000 C   0  0  0  0  0  0  0  0  0  0  0  0
   -5.8415   -1.7882   -0.0000 O   0  0  0  0  0  0  0  0  0  0  0  0
   -4.5420   -4.0533   -0.0000 C   0  0  0  0  0  0  0  0  0  0  0  0
   -7.1528   -2.5392   -0.0000 C   0  0  0  0  0  0  0  0  0  0  0  0
   -5.8534   -4.7924   -0.0000 C   0  0  0  0  0  0  0  0  0  0  0  0
   -3.2545   -4.7924   -0.0000 C   0  0  0  0  0  0  0  0  0  0  0  0
   -7.1767   -4.0294   -0.0000 C   0  0  0  0  0  0  0  0  0  0  0  0
   -8.4642   -1.7763   -0.0000 C   0  0  0  0  0  0  0  0  0  0  0  0
   -5.8891   -6.2706   -0.0000 C   0  0  0  0  0  0  0  0  0  0  0  0
   -3.2784   -6.2826   -0.0000 C   0  0  0  0  0  0  0  0  0  0  0  0
   -1.9670   -4.0413   -0.0000 C   0  0  0  0  0  0  0  0  0  0  0  0
   -8.4880   -4.7685   -0.0000 C   0  0  0  0  0  0  0  0  0  0  0  0
   -9.7755   -2.5154   -0.0000 C   0  0  0  0  0  0  0  0  0  0  0  0
   -4.6016   -7.0217   -0.0000 C   0  0  0  0  0  0  0  0  0  0  0  0
   -2.0147   -7.0217   -0.0000 N   0  0  0  0  0  0  0  0  0  0  0  0
   -0.6914   -4.7924   -0.0000 C   0  0  0  0  0  0  0  0  0  0  0  0
   -1.9789   -2.5273   -0.0000 C   0  0  0  0  0  0  0  0  0  0  0  0
   -9.7994   -4.0056   -0.0000 C   0  0  0  0  0  0  0  0  0  0  0  0
   -0.7272   -6.2706   -0.0000 C   0  0  0  0  0  0  0  0  0  0  0  0
    0.5961   -4.0294   -0.0000 O   0  0  0  0  0  0  0  0  0  0  0  0
   -0.7391   -7.7608   -0.0000 C   0  0  0  0  0  0  0  0  0  0  0  0
    0.7630   -6.2587   -0.0000 C   0  0  0  0  0  0  0  0  0  0  0  0
  1  2  1  0  0  0  0
  2  3  2  0  0  0  0
  2  4  1  0  0  0  0
  3  5  1  0  0  0  0
  4  6  2  0  0  0  0
  5  7  2  0  0  0  0
  8  5  1  1  0  0  0
  8  9  1  0  0  0  0
  8 10  1  0  0  0  0
  9 11  1  0  0  0  0
 10 12  2  0  0  0  0
 10 13  1  0  0  0  0
 11 14  2  0  0  0  0
 11 15  1  0  0  0  0
 12 16  1  0  0  0  0
 13 17  2  0  0  0  0
 13 18  1  0  0  0  0
 14 19  1  0  0  0  0
 15 20  2  0  0  0  0
 16 21  2  0  0  0  0
 17 22  1  0  0  0  0
 18 23  1  0  0  0  0
 18 24  1  1  0  0  0
 19 25  2  0  0  0  0
 22 26  1  0  0  0  0
 23 27  2  0  0  0  0
 26 28  1  0  0  0  0
 26 29  1  0  0  0  0
  6  7  1  0  0  0  0
 12 14  1  0  0  0  0
 17 21  1  0  0  0  0
 20 25  1  0  0  0  0
 23 26  1  0  0  0  0
M  END
>  <MolRegNo>
49924

>  <m>
=

>  <Value>
504

>  <Unit>
nM

>  <Type>
Ki

>  <pValue>
6.3

>  <Ligand Efficiency>
0.3

>  <Binding Efficiency>
16.25

>  <Surface Efficiency>
16.43

>  <Assay Index>
36206

>  <Assay Category>


>  <Assay Organism>


>  <Target ID>
56

>  <Target Name>
Androgen Receptor

>  <Target Organism>
Homo sapiens

>  <Target Description>
Target is a single protein chain

>  <Sequence Accession>
P10275

>  <Reference>
J Med Chem 42 (8), 1466-1472 (1999)

>  <Pubmed ID>
10212133

>  <DOI>
10.1021/jm980723h

$$$$
49696
Actelion Java MolfileCreator 1.0

 28 32  0  0  1  0  0  0  0  0999 V2000
    0.0000   -0.0000   -0.0000 O   0  0  0  0  0  0  0  0  0  0  0  0
   -1.3066   -0.7365   -0.0000 C   0  0  0  0  0  0  0  0  0  0  0  0
   -1.3304   -2.2094   -0.0000 C   0  0  0  0  0  0  0  0  0  0  0  0
   -2.6014    0.0356   -0.0000 C   0  0  0  0  0  0  0  0  0  0  0  0
   -2.6370   -2.9340   -0.0000 N   0  0  0  0  0  0  0  0  0  0  0  0
    0.1544   -2.1975   -0.0000 C   0  0  0  0  0  0  0  0  0  0  0  0
   -1.3423   -3.6942   -0.0000 C   0  0  0  0  0  0  0  0  0  0  0  0
   -3.9081   -0.6890   -0.0000 C   0  0  0  0  0  0  0  0  0  0  0  0
   -2.6133    1.5442   -0.0000 C   0  0  0  0  0  0  0  0  0  0  0  0
   -3.9199   -2.1738   -0.0000 C   0  0  0  0  0  0  0  0  0  0  0  0
   -5.2147    0.0713   -0.0000 C   0  0  0  0  0  0  0  0  0  0  0  0
   -5.2385   -2.9103   -0.0000 C   0  0  0  0  0  0  0  0  0  0  0  0
   -6.5213   -0.6652   -0.0000 C   0  0  0  0  0  0  0  0  0  0  0  0
   -5.2266    1.5799   -0.0000 C   0  0  0  0  0  0  0  0  0  0  0  0
   -6.5451   -2.1381   -0.0000 C   0  0  0  0  0  0  0  0  0  0  0  0
   -7.8280    0.0950   -0.0000 C   0  0  0  0  0  0  0  0  0  0  0  0
   -6.5332    2.3520   -0.0000 O   0  0  0  0  0  0  0  0  0  0  0  0
   -4.4901    2.8865   -0.0000 C   0  0  0  0  0  0  0  0  0  0  0  0
   -7.8280    1.6036   -0.0000 C   0  0  0  0  0  0  0  0  0  0  0  0
   -9.1346   -0.6414   -0.0000 C   0  0  0  0  0  0  0  0  0  0  0  0
   -5.2741    4.1813   -0.0000 C   0  0  0  0  0  0  0  0  0  0  0  0
   -3.0053    2.9103   -0.0000 C   0  0  0  0  0  0  0  0  0  0  0  0
   -9.1346    2.3638   -0.0000 C   0  0  0  0  0  0  0  0  0  0  0  0
  -10.4413    0.1188   -0.0000 C   0  0  0  0  0  0  0  0  0  0  0  0
   -4.5614    5.4879   -0.0000 C   0  0  0  0  0  0  0  0  0  0  0  0
   -2.2926    4.2169   -0.0000 C   0  0  0  0  0  0  0  0  0  0  0  0
  -10.4413    1.6274   -0.0000 C   0  0  0  0  0  0  0  0  0  0  0  0
   -3.0647    5.5235   -0.0000 C   0  0  0  0  0  0  0  0  0  0  0  0
  1  2  2  0  0  0  0
  2  3  1  0  0  0  0
  2  4  1  0  0  0  0
  3  5  1  0  0  0  0
  3  6  1  0  0  0  0
  3  7  1  0  0  0  0
  4  8  1  0  0  0  0
  4  9  1  1  0  0  0
  5 10  1  0  0  0  0
  8 11  1  0  0  0  0
 10 12  1  0  0  0  0
 11 13  2  0  0  0  0
 11 14  1  0  0  0  0
 12 15  2  0  0  0  0
 13 16  1  0  0  0  0
 14 17  1  0  0  0  0
 14 18  1  1  0  0  0
 16 19  2  0  0  0  0
 16 20  1  0  0  0  0
 18 21  2  0  0  0  0
 18 22  1  0  0  0  0
 19 23  1  0  0  0  0
 20 24  2  0  0  0  0
 21 25  1  0  0  0  0
 22 26  2  0  0  0  0
 23 27  2  0  0  0  0
 25 28  2  0  0  0  0
  8 10  2  0  0  0  0
 13 15  1  0  0  0  0
 17 19  1  0  0  0  0
 24 27  1  0  0  0  0
 26 28  1  0  0  0  0
M  END
>  <MolRegNo>
49696

>  <m>
=

>  <Value>
1075

>  <Unit>
nM

>  <Type>
Ki

>  <pValue>
5.97

>  <Ligand Efficiency>
0.29

>  <Binding Efficiency>
16.15

>  <Surface Efficiency>
15.57

>  <Assay Index>
36206

>  <Assay Category>


>  <Assay Organism>


>  <Target ID>
56

>  <Target Name>
Androgen Receptor

>  <Target Organism>
Homo sapiens

>  <Target Description>
Target is a single protein chain

>  <Sequence Accession>
P10275

>  <Reference>
J Med Chem 42 (8), 1466-1472 (1999)

>  <Pubmed ID>
10212133

>  <DOI>
10.1021/jm980723h

$$$$
49844
Actelion Java MolfileCreator 1.0

 30 34  0  0  0  0  0  0  0  0999 V2000
    0.0000   -0.0000   -0.0000 F   0  0  0  0  0  0  0  0  0  0  0  0
   -1.3127   -0.7518   -0.0000 C   0  0  0  0  0  0  0  0  0  0  0  0
   -1.3247   -2.2197   -0.0000 C   0  0  0  0  0  0  0  0  0  0  0  0
   -2.6255    0.0239   -0.0000 C   0  0  0  0  0  0  0  0  0  0  0  0
   -2.6374   -2.9596   -0.0000 C   0  0  0  0  0  0  0  0  0  0  0  0
   -3.9382   -0.7280   -0.0000 C   0  0  0  0  0  0  0  0  0  0  0  0
   -3.9382   -2.1958   -0.0000 C   0  0  0  0  0  0  0  0  0  0  0  0
   -2.6493   -4.4514   -0.0000 C   0  0  0  0  0  0  0  0  0  0  0  0
   -3.9740   -5.1913   -0.0000 C   0  0  0  0  0  0  0  0  0  0  0  0
   -5.2867   -4.4156   -0.0000 O   0  0  0  0  0  0  0  0  0  0  0  0
   -3.9859   -6.6830   -0.0000 C   0  0  0  0  0  0  0  0  0  0  0  0
   -6.5995   -5.1674   -0.0000 C   0  0  0  0  0  0  0  0  0  0  0  0
   -5.2987   -7.4229   -0.0000 C   0  0  0  0  0  0  0  0  0  0  0  0
   -2.6971   -7.4229   -0.0000 C   0  0  0  0  0  0  0  0  0  0  0  0
   -6.6233   -6.6591   -0.0000 C   0  0  0  0  0  0  0  0  0  0  0  0
   -7.9122   -4.4036   -0.0000 C   0  0  0  0  0  0  0  0  0  0  0  0
   -5.3345   -8.9027   -0.0000 C   0  0  0  0  0  0  0  0  0  0  0  0
   -2.7209   -8.9147   -0.0000 C   0  0  0  0  0  0  0  0  0  0  0  0
   -1.4082   -6.6711   -0.0000 C   0  0  0  0  0  0  0  0  0  0  0  0
   -7.9361   -7.3990   -0.0000 C   0  0  0  0  0  0  0  0  0  0  0  0
   -9.2249   -5.1435   -0.0000 C   0  0  0  0  0  0  0  0  0  0  0  0
   -4.0456   -9.6546   -0.0000 C   0  0  0  0  0  0  0  0  0  0  0  0
   -1.4559   -9.6546   -0.0000 N   0  0  0  0  0  0  0  0  0  0  0  0
   -0.1313   -7.4229   -0.0000 C   0  0  0  0  0  0  0  0  0  0  0  0
   -1.4082   -5.1435   -0.0000 C   0  0  0  0  0  0  0  0  0  0  0  0
   -9.2488   -6.6353   -0.0000 C   0  0  0  0  0  0  0  0  0  0  0  0
   -0.1671   -8.9027   -0.0000 C   0  0  0  0  0  0  0  0  0  0  0  0
    1.1576   -6.6591   -0.0000 O   0  0  0  0  0  0  0  0  0  0  0  0
    1.3247   -8.8908   -0.0000 C   0  0  0  0  0  0  0  0  0  0  0  0
   -0.1790  -10.3945   -0.0000 C   0  0  0  0  0  0  0  0  0  0  0  0
  1  2  1  0  0  0  0
  2  3  2  0  0  0  0
  2  4  1  0  0  0  0
  3  5  1  0  0  0  0
  4  6  2  0  0  0  0
  5  7  2  0  0  0  0
  5  8  1  0  0  0  0
  8  9  2  0  0  0  0
  9 10  1  0  0  0  0
  9 11  1  0  0  0  0
 10 12  1  0  0  0  0
 11 13  2  0  0  0  0
 11 14  1  0  0  0  0
 12 15  2  0  0  0  0
 12 16  1  0  0  0  0
 13 17  1  0  0  0  0
 14 18  2  0  0  0  0
 14 19  1  0  0  0  0
 15 20  1  0  0  0  0
 16 21  2  0  0  0  0
 17 22  2  0  0  0  0
 18 23  1  0  0  0  0
 19 24  1  0  0  0  0
 19 25  1  0  0  0  0
 20 26  2  0  0  0  0
 23 27  1  0  0  0  0
 24 28  2  0  0  0  0
 27 29  1  0  0  0  0
 27 30  1  0  0  0  0
  6  7  1  0  0  0  0
 13 15  1  0  0  0  0
 18 22  1  0  0  0  0
 21 26  1  0  0  0  0
 24 27  1  0  0  0  0
M  END
>  <MolRegNo>
49844

>  <m>
=

>  <Value>
560

>  <Unit>
nM

>  <Type>
Ki

>  <pValue>
6.25

>  <Ligand Efficiency>
0.28

>  <Binding Efficiency>
15.65

>  <Surface Efficiency>
16.31

>  <Assay Index>
36206

>  <Assay Category>


>  <Assay Organism>


>  <Target ID>
56

>  <Target Name>
Androgen Receptor

>  <Target Organism>
Homo sapiens

>  <Target Description>
Target is a single protein chain

>  <Sequence Accession>
P10275

>  <Reference>
J Med Chem 42 (8), 1466-1472 (1999)

>  <Pubmed ID>
10212133

>  <DOI>
10.1021/jm980723h

$$$$
49659
Actelion Java MolfileCreator 1.0

 29 33  0  0  1  0  0  0  0  0999 V2000
    0.0000   -0.0000   -0.0000 Cl  0  0  0  0  0  0  0  0  0  0  0  0
   -0.7526   -1.2902   -0.0000 C   0  0  0  0  0  0  0  0  0  0  0  0
   -2.2698   -1.3021   -0.0000 C   0  0  0  0  0  0  0  0  0  0  0  0
    0.0000   -2.5804   -0.0000 C   0  0  0  0  0  0  0  0  0  0  0  0
   -3.0105   -2.5923   -0.0000 C   0  0  0  0  0  0  0  0  0  0  0  0
   -0.7526   -3.8706   -0.0000 C   0  0  0  0  0  0  0  0  0  0  0  0
   -2.2579   -3.8826   -0.0000 C   0  0  0  0  0  0  0  0  0  0  0  0
   -3.0105   -5.1728   -0.0000 C   0  0  0  0  0  0  0  0  0  0  0  0
   -4.3365   -4.4082   -0.0000 O   0  0  0  0  0  0  0  0  0  0  0  0
   -3.0224   -6.6780   -0.0000 C   0  0  0  0  0  0  0  0  0  0  0  0
   -5.6506   -5.1489   -0.0000 C   0  0  0  0  0  0  0  0  0  0  0  0
   -4.3485   -7.4067   -0.0000 C   0  0  0  0  0  0  0  0  0  0  0  0
   -1.7561   -7.4187   -0.0000 C   0  0  0  0  0  0  0  0  0  0  0  0
   -5.6626   -6.6421   -0.0000 C   0  0  0  0  0  0  0  0  0  0  0  0
   -6.9647   -4.3843   -0.0000 C   0  0  0  0  0  0  0  0  0  0  0  0
   -4.3723   -8.9000   -0.0000 C   0  0  0  0  0  0  0  0  0  0  0  0
   -1.7681   -8.9119   -0.0000 C   0  0  0  0  0  0  0  0  0  0  0  0
   -0.4659   -6.6660   -0.0000 C   0  0  0  0  0  0  0  0  0  0  0  0
   -6.9766   -7.3948   -0.0000 C   0  0  0  0  0  0  0  0  0  0  0  0
   -8.2788   -5.1369   -0.0000 C   0  0  0  0  0  0  0  0  0  0  0  0
   -3.0821   -9.6526   -0.0000 C   0  0  0  0  0  0  0  0  0  0  0  0
   -0.4898   -9.6407   -0.0000 N   0  0  0  0  0  0  0  0  0  0  0  0
    0.8243   -7.4067   -0.0000 C   0  0  0  0  0  0  0  0  0  0  0  0
   -0.4779   -5.1489   -0.0000 C   0  0  0  0  0  0  0  0  0  0  0  0
   -8.2907   -6.6302   -0.0000 C   0  0  0  0  0  0  0  0  0  0  0  0
    0.8004   -8.9000   -0.0000 C   0  0  0  0  0  0  0  0  0  0  0  0
    2.1145   -6.6541   -0.0000 O   0  0  0  0  0  0  0  0  0  0  0  0
    2.2937   -8.8881   -0.0000 C   0  0  0  0  0  0  0  0  0  0  0  0
    0.7765  -10.3933   -0.0000 C   0  0  0  0  0  0  0  0  0  0  0  0
  1  2  1  0  0  0  0
  2  3  2  0  0  0  0
  2  4  1  0  0  0  0
  3  5  1  0  0  0  0
  4  6  2  0  0  0  0
  5  7  2  0  0  0  0
  8  7  1  1  0  0  0
  8  9  1  0  0  0  0
  8 10  1  0  0  0  0
  9 11  1  0  0  0  0
 10 12  2  0  0  0  0
 10 13  1  0  0  0  0
 11 14  2  0  0  0  0
 11 15  1  0  0  0  0
 12 16  1  0  0  0  0
 13 17  2  0  0  0  0
 13 18  1  0  0  0  0
 14 19  1  0  0  0  0
 15 20  2  0  0  0  0
 16 21  2  0  0  0  0
 17 22  1  0  0  0  0
 18 23  1  0  0  0  0
 18 24  1  6  0  0  0
 19 25  2  0  0  0  0
 22 26  1  0  0  0  0
 23 27  2  0  0  0  0
 26 28  1  0  0  0  0
 26 29  1  0  0  0  0
  6  7  1  0  0  0  0
 12 14  1  0  0  0  0
 17 21  1  0  0  0  0
 20 25  1  0  0  0  0
 23 26  1  0  0  0  0
M  END
>  <MolRegNo>
49659

>  <m>
=

>  <Value>
1177

>  <Unit>
nM

>  <Type>
Ki

>  <pValue>
5.93

>  <Ligand Efficiency>
0.28

>  <Binding Efficiency>
14.68

>  <Surface Efficiency>
15.47

>  <Assay Index>
36206

>  <Assay Category>


>  <Assay Organism>


>  <Target ID>
56

>  <Target Name>
Androgen Receptor

>  <Target Organism>
Homo sapiens

>  <Target Description>
Target is a single protein chain

>  <Sequence Accession>
P10275

>  <Reference>
J Med Chem 42 (8), 1466-1472 (1999)

>  <Pubmed ID>
10212133

>  <DOI>
10.1021/jm980723h

$$$$
49881
Actelion Java MolfileCreator 1.0

 32 36  0  0  1  0  0  0  0  0999 V2000
    0.0000   -0.0000   -0.0000 F   0  0  0  0  0  0  0  0  0  0  0  0
   -1.3796   -0.0000   -0.0000 C   0  0  0  0  0  0  0  0  0  0  0  0
   -0.3806   -1.1893   -0.0000 F   0  0  0  0  0  0  0  0  0  0  0  0
   -0.4163    1.2369   -0.0000 F   0  0  0  0  0  0  0  0  0  0  0  0
   -2.8901   -0.0119   -0.0000 C   0  0  0  0  0  0  0  0  0  0  0  0
   -3.6512   -1.3083   -0.0000 C   0  0  0  0  0  0  0  0  0  0  0  0
   -3.6631    1.2964   -0.0000 C   0  0  0  0  0  0  0  0  0  0  0  0
   -5.1617   -1.3083   -0.0000 C   0  0  0  0  0  0  0  0  0  0  0  0
   -5.1855    1.2845   -0.0000 C   0  0  0  0  0  0  0  0  0  0  0  0
   -5.9347   -0.0119   -0.0000 C   0  0  0  0  0  0  0  0  0  0  0  0
   -5.9109   -2.6046   -0.0000 C   0  0  0  0  0  0  0  0  0  0  0  0
   -7.2311   -1.8316   -0.0000 O   0  0  0  0  0  0  0  0  0  0  0  0
   -5.9228   -4.1032   -0.0000 C   0  0  0  0  0  0  0  0  0  0  0  0
   -8.5394   -2.5808   -0.0000 C   0  0  0  0  0  0  0  0  0  0  0  0
   -7.2430   -4.8406   -0.0000 C   0  0  0  0  0  0  0  0  0  0  0  0
   -4.6503   -4.8406   -0.0000 C   0  0  0  0  0  0  0  0  0  0  0  0
   -8.5513   -4.0675   -0.0000 C   0  0  0  0  0  0  0  0  0  0  0  0
   -9.8476   -1.8197   -0.0000 C   0  0  0  0  0  0  0  0  0  0  0  0
   -7.2668   -6.3153   -0.0000 C   0  0  0  0  0  0  0  0  0  0  0  0
   -4.6622   -6.3272   -0.0000 C   0  0  0  0  0  0  0  0  0  0  0  0
   -3.3658   -4.0794   -0.0000 C   0  0  0  0  0  0  0  0  0  0  0  0
   -9.8595   -4.8168   -0.0000 C   0  0  0  0  0  0  0  0  0  0  0  0
  -11.1559   -2.5571   -0.0000 C   0  0  0  0  0  0  0  0  0  0  0  0
   -5.9823   -7.0765   -0.0000 C   0  0  0  0  0  0  0  0  0  0  0  0
   -3.3896   -7.0646   -0.0000 N   0  0  0  0  0  0  0  0  0  0  0  0
   -2.0813   -4.8287   -0.0000 C   0  0  0  0  0  0  0  0  0  0  0  0
   -3.3777   -2.5689   -0.0000 C   0  0  0  0  0  0  0  0  0  0  0  0
  -11.1678   -4.0556   -0.0000 C   0  0  0  0  0  0  0  0  0  0  0  0
   -2.1051   -6.3034   -0.0000 C   0  0  0  0  0  0  0  0  0  0  0  0
   -0.7968   -4.0675   -0.0000 O   0  0  0  0  0  0  0  0  0  0  0  0
   -0.6184   -6.2915   -0.0000 C   0  0  0  0  0  0  0  0  0  0  0  0
   -2.1289   -7.7901   -0.0000 C   0  0  0  0  0  0  0  0  0  0  0  0
  1  2  1  0  0  0  0
  2  3  1  0  0  0  0
  2  4  1  0  0  0  0
  2  5  1  0  0  0  0
  5  6  2  0  0  0  0
  5  7  1  0  0  0  0
  6  8  1  0  0  0  0
  7  9  2  0  0  0  0
  8 10  2  0  0  0  0
 11  8  1  1  0  0  0
 11 12  1  0  0  0  0
 11 13  1  0  0  0  0
 12 14  1  0  0  0  0
 13 15  2  0  0  0  0
 13 16  1  0  0  0  0
 14 17  2  0  0  0  0
 14 18  1  0  0  0  0
 15 19  1  0  0  0  0
 16 20  2  0  0  0  0
 16 21  1  0  0  0  0
 17 22  1  0  0  0  0
 18 23  2  0  0  0  0
 19 24  2  0  0  0  0
 20 25  1  0  0  0  0
 21 26  1  0  0  0  0
 21 27  1  6  0  0  0
 22 28  2  0  0  0  0
 25 29  1  0  0  0  0
 26 30  2  0  0  0  0
 29 31  1  0  0  0  0
 29 32  1  0  0  0  0
  9 10  1  0  0  0  0
 15 17  1  0  0  0  0
 20 24  1  0  0  0  0
 23 28  1  0  0  0  0
 26 29  1  0  0  0  0
M  END
>  <MolRegNo>
49881

>  <m>
=

>  <Value>
1091

>  <Unit>
nM

>  <Type>
Ki

>  <pValue>
5.96

>  <Ligand Efficiency>
0.25

>  <Binding Efficiency>
13.63

>  <Surface Efficiency>
15.55

>  <Assay Index>
36206

>  <Assay Category>


>  <Assay Organism>


>  <Target ID>
56

>  <Target Name>
Androgen Receptor

>  <Target Organism>
Homo sapiens

>  <Target Description>
Target is a single protein chain

>  <Sequence Accession>
P10275

>  <Reference>
J Med Chem 42 (8), 1466-1472 (1999)

>  <Pubmed ID>
10212133

>  <DOI>
10.1021/jm980723h

$$$$
127372
Actelion Java MolfileCreator 1.0

 23 26  0  0  1  0  0  0  0  0999 V2000
    0.0000   -0.0000   -0.0000 O   0  0  0  0  0  0  0  0  0  0  0  0
    1.2855    0.7618   -0.0000 C   0  0  0  0  0  0  0  0  0  0  0  0
    2.5591    0.0238   -0.0000 C   0  0  0  0  0  0  0  0  0  0  0  0
    1.2736    2.2615   -0.0000 C   0  0  0  0  0  0  0  0  0  0  0  0
    3.8445    0.7856   -0.0000 C   0  0  0  0  0  0  0  0  0  0  0  0
    2.5472    3.0471   -0.0000 C   0  0  0  0  0  0  0  0  0  0  0  0
    3.8326    2.2853   -0.0000 C   0  0  0  0  0  0  0  0  0  0  0  0
    5.1181    0.0476   -0.0000 C   0  0  0  0  0  0  0  0  0  0  0  0
    5.1062    3.0590   -0.0000 C   0  0  0  0  0  0  0  0  0  0  0  0
    3.7969    3.7850   -0.0000 C   0  0  0  0  0  0  0  0  0  0  0  0
    6.4155    0.8094   -0.0000 C   0  0  0  0  0  0  0  0  0  0  0  0
    6.4036    2.3091   -0.0000 C   0  0  0  0  0  0  0  0  0  0  0  0
    5.0824    4.5825   -0.0000 C   0  0  0  0  0  0  0  0  0  0  0  0
    2.4757    4.5468   -0.0000 C   0  0  0  0  0  0  0  0  0  0  0  0
    7.6891    3.0709   -0.0000 C   0  0  0  0  0  0  0  0  0  0  0  0
    6.3798    5.3443   -0.0000 C   0  0  0  0  0  0  0  0  0  0  0  0
    1.1903    3.7969   -0.0000 C   0  0  0  0  0  0  0  0  0  0  0  0
    2.4638    6.0465   -0.0000 C   0  0  0  0  0  0  0  0  0  0  0  0
    7.6891    4.5706   -0.0000 C   0  0  0  0  0  0  0  0  0  0  0  0
   -0.1071    4.5468   -0.0000 C   0  0  0  0  0  0  0  0  0  0  0  0
    1.1427    6.8083   -0.0000 C   0  0  0  0  0  0  0  0  0  0  0  0
    8.9865    5.3324   -0.0000 O   0  0  0  0  0  0  0  0  0  0  0  0
   -0.1428    6.0584   -0.0000 C   0  0  0  0  0  0  0  0  0  0  0  0
  1  2  2  0  0  0  0
  2  3  1  0  0  0  0
  2  4  1  0  0  0  0
  3  5  2  0  0  0  0
  4  6  1  0  0  0  0
  5  7  1  0  0  0  0
  5  8  1  0  0  0  0
  7  9  1  0  0  0  0
  7 10  1  6  0  0  0
  8 11  1  0  0  0  0
  9 12  2  0  0  0  0
  9 13  1  0  0  0  0
 10 14  1  0  0  0  0
 12 15  1  0  0  0  0
 13 16  2  0  0  0  0
 14 17  2  0  0  0  0
 14 18  1  0  0  0  0
 15 19  2  0  0  0  0
 17 20  1  0  0  0  0
 18 21  2  0  0  0  0
 19 22  1  0  0  0  0
 20 23  2  0  0  0  0
  6  7  1  0  0  0  0
 11 12  1  0  0  0  0
 16 19  1  0  0  0  0
 21 23  1  0  0  0  0
M  END
>  <MolRegNo>
127372

>  <m>
=

>  <Value>
180

>  <Unit>
nM

>  <Type>
Ki

>  <pValue>
6.75

>  <Ligand Efficiency>
0.4

>  <Binding Efficiency>
22.16

>  <Surface Efficiency>
18.08

>  <Assay Index>
36198

>  <Assay Category>


>  <Assay Organism>
Homo sapiens

>  <Target ID>
56

>  <Target Name>
Androgen Receptor

>  <Target Organism>
Homo sapiens

>  <Target Description>
Target is a single protein chain

>  <Sequence Accession>
P10275

>  <Reference>
J Med Chem 45 (12), 2417-2424 (2002)

>  <Pubmed ID>
12036351

>  <DOI>
10.1021/jm0105530

$$$$
127940
Actelion Java MolfileCreator 1.0

 24 27  0  0  1  0  0  0  0  0999 V2000
    0.0000   -0.0000   -0.0000 O   0  0  0  0  0  0  0  0  0  0  0  0
    1.2855    0.7618   -0.0000 C   0  0  0  0  0  0  0  0  0  0  0  0
    2.5591    0.0238   -0.0000 C   0  0  0  0  0  0  0  0  0  0  0  0
    1.2736    2.2615   -0.0000 C   0  0  0  0  0  0  0  0  0  0  0  0
    3.8446    0.7856   -0.0000 C   0  0  0  0  0  0  0  0  0  0  0  0
    2.5472    3.0471   -0.0000 C   0  0  0  0  0  0  0  0  0  0  0  0
    3.8327    2.2853   -0.0000 C   0  0  0  0  0  0  0  0  0  0  0  0
    5.1182    0.0476   -0.0000 C   0  0  0  0  0  0  0  0  0  0  0  0
    5.1063    3.0590   -0.0000 C   0  0  0  0  0  0  0  0  0  0  0  0
    3.7970    3.7851   -0.0000 C   0  0  0  0  0  0  0  0  0  0  0  0
    6.4156    0.8094   -0.0000 C   0  0  0  0  0  0  0  0  0  0  0  0
    6.4037    2.3091   -0.0000 C   0  0  0  0  0  0  0  0  0  0  0  0
    5.0825    4.5825   -0.0000 C   0  0  0  0  0  0  0  0  0  0  0  0
    2.4758    4.5468   -0.0000 C   0  0  0  0  0  0  0  0  0  0  0  0
    7.6891    3.0709   -0.0000 C   0  0  0  0  0  0  0  0  0  0  0  0
    6.3798    5.3443   -0.0000 C   0  0  0  0  0  0  0  0  0  0  0  0
    2.4639    6.0466   -0.0000 C   0  0  0  0  0  0  0  0  0  0  0  0
    1.1903    3.7970   -0.0000 C   0  0  0  0  0  0  0  0  0  0  0  0
    7.6891    4.5706   -0.0000 C   0  0  0  0  0  0  0  0  0  0  0  0
    1.1427    6.8083   -0.0000 C   0  0  0  0  0  0  0  0  0  0  0  0
   -0.1071    4.5468   -0.0000 C   0  0  0  0  0  0  0  0  0  0  0  0
    8.9865    5.3324   -0.0000 O   0  0  0  0  0  0  0  0  0  0  0  0
   -0.1428    6.0585   -0.0000 C   0  0  0  0  0  0  0  0  0  0  0  0
    8.9746    6.8321   -0.0000 C   0  0  0  0  0  0  0  0  0  0  0  0
  1  2  2  0  0  0  0
  2  3  1  0  0  0  0
  2  4  1  0  0  0  0
  3  5  2  0  0  0  0
  4  6  1  0  0  0  0
  5  7  1  0  0  0  0
  5  8  1  0  0  0  0
  7  9  1  0  0  0  0
  7 10  1  1  0  0  0
  8 11  1  0  0  0  0
  9 12  2  0  0  0  0
  9 13  1  0  0  0  0
 10 14  1  0  0  0  0
 12 15  1  0  0  0  0
 13 16  2  0  0  0  0
 14 17  2  0  0  0  0
 14 18  1  0  0  0  0
 15 19  2  0  0  0  0
 17 20  1  0  0  0  0
 18 21  2  0  0  0  0
 19 22  1  0  0  0  0
 20 23  2  0  0  0  0
 22 24  1  0  0  0  0
  6  7  1  0  0  0  0
 11 12  1  0  0  0  0
 16 19  1  0  0  0  0
 21 23  1  0  0  0  0
M  END
>  <MolRegNo>
127940

>  <m>
=

>  <Value>
54

>  <Unit>
nM

>  <Type>
Ki

>  <pValue>
7.27

>  <Ligand Efficiency>
0.41

>  <Binding Efficiency>
22.82

>  <Surface Efficiency>
27.63

>  <Assay Index>
36198

>  <Assay Category>


>  <Assay Organism>
Homo sapiens

>  <Target ID>
56

>  <Target Name>
Androgen Receptor

>  <Target Organism>
Homo sapiens

>  <Target Description>
Target is a single protein chain

>  <Sequence Accession>
P10275

>  <Reference>
J Med Chem 45 (12), 2417-2424 (2002)

>  <Pubmed ID>
12036351

>  <DOI>
10.1021/jm0105530

$$$$
127333
Actelion Java MolfileCreator 1.0

 26 29  0  0  0  0  0  0  0  0999 V2000
    0.0000   -0.0000   -0.0000 Cl  0  0  0  0  0  0  0  0  0  0  0  0
   -1.3109    0.7558   -0.0000 C   0  0  0  0  0  0  0  0  0  0  0  0
   -2.6100    1.5117   -0.0000 C   0  0  0  0  0  0  0  0  0  0  0  0
   -3.8972    2.2675   -0.0000 C   0  0  0  0  0  0  0  0  0  0  0  0
   -2.6100    3.0115   -0.0000 O   0  0  0  0  0  0  0  0  0  0  0  0
   -3.9209    0.7794   -0.0000 C   0  0  0  0  0  0  0  0  0  0  0  0
   -5.2081    3.0351   -0.0000 C   0  0  0  0  0  0  0  0  0  0  0  0
   -5.2317    0.0590   -0.0000 C   0  0  0  0  0  0  0  0  0  0  0  0
   -6.5190    2.3147   -0.0000 C   0  0  0  0  0  0  0  0  0  0  0  0
   -6.5308    0.8267   -0.0000 C   0  0  0  0  0  0  0  0  0  0  0  0
   -5.2317   -1.4290   -0.0000 C   0  0  0  0  0  0  0  0  0  0  0  0
   -7.8417    0.0827   -0.0000 C   0  0  0  0  0  0  0  0  0  0  0  0
   -7.8417    1.5825   -0.0000 C   0  0  0  0  0  0  0  0  0  0  0  0
   -6.5426   -2.1612   -0.0000 C   0  0  0  0  0  0  0  0  0  0  0  0
   -7.8417   -1.4054   -0.0000 C   0  0  0  0  0  0  0  0  0  0  0  0
   -9.1408    0.8385   -0.0000 C   0  0  0  0  0  0  0  0  0  0  0  0
   -7.8535    3.0824   -0.0000 C   0  0  0  0  0  0  0  0  0  0  0  0
   -9.1526   -2.1494   -0.0000 C   0  0  0  0  0  0  0  0  0  0  0  0
  -10.4399    0.1063   -0.0000 C   0  0  0  0  0  0  0  0  0  0  0  0
   -6.5781    3.8382   -0.0000 C   0  0  0  0  0  0  0  0  0  0  0  0
   -9.1644    3.8382   -0.0000 C   0  0  0  0  0  0  0  0  0  0  0  0
  -10.4517   -1.3936   -0.0000 C   0  0  0  0  0  0  0  0  0  0  0  0
   -6.5899    5.3380   -0.0000 C   0  0  0  0  0  0  0  0  0  0  0  0
   -9.1880    5.3380   -0.0000 C   0  0  0  0  0  0  0  0  0  0  0  0
  -11.7626   -2.1258   -0.0000 O   0  0  0  0  0  0  0  0  0  0  0  0
   -7.8889    6.0939   -0.0000 C   0  0  0  0  0  0  0  0  0  0  0  0
  1  2  1  0  0  0  0
  2  3  3  0  0  0  0
  4  3  1  1  0  0  0
  4  5  1  0  0  0  0
  4  6  1  0  0  0  0
  4  7  1  0  0  0  0
  8  6  1  6  0  0  0
  7  9  1  0  0  0  0
  8 10  1  0  0  0  0
  8 11  1  0  0  0  0
 10 12  1  0  0  0  0
 10 13  1  6  0  0  0
 11 14  1  0  0  0  0
 12 15  2  0  0  0  0
 12 16  1  0  0  0  0
 13 17  1  0  0  0  0
 15 18  1  0  0  0  0
 16 19  2  0  0  0  0
 17 20  2  0  0  0  0
 17 21  1  0  0  0  0
 18 22  2  0  0  0  0
 20 23  1  0  0  0  0
 21 24  2  0  0  0  0
 22 25  1  0  0  0  0
 23 26  2  0  0  0  0
  9 10  1  0  0  0  0
 14 15  1  0  0  0  0
 19 22  1  0  0  0  0
 24 26  1  0  0  0  0
M  END
>  <MolRegNo>
127333

>  <m>
=

>  <Value>
130

>  <Unit>
nM

>  <Type>
Ki

>  <pValue>
6.89

>  <Ligand Efficiency>
0.36

>  <Binding Efficiency>
18.77

>  <Surface Efficiency>
17.02

>  <Assay Index>
36198

>  <Assay Category>


>  <Assay Organism>
Homo sapiens

>  <Target ID>
56

>  <Target Name>
Androgen Receptor

>  <Target Organism>
Homo sapiens

>  <Target Description>
Target is a single protein chain

>  <Sequence Accession>
P10275

>  <Reference>
J Med Chem 45 (12), 2417-2424 (2002)

>  <Pubmed ID>
12036351

>  <DOI>
10.1021/jm0105530

$$$$
127294
Actelion Java MolfileCreator 1.0

 23 26  0  0  0  0  0  0  0  0999 V2000
    0.0000   -0.0000   -0.0000 O   0  0  0  0  0  0  0  0  0  0  0  0
   -1.3118   -0.7209   -0.0000 C   0  0  0  0  0  0  0  0  0  0  0  0
   -1.3473   -2.1982   -0.0000 C   0  0  0  0  0  0  0  0  0  0  0  0
   -2.6119    0.0473   -0.0000 C   0  0  0  0  0  0  0  0  0  0  0  0
   -2.6473   -2.9310   -0.0000 C   0  0  0  0  0  0  0  0  0  0  0  0
   -3.9355   -0.6737   -0.0000 C   0  0  0  0  0  0  0  0  0  0  0  0
   -3.9592   -2.1628   -0.0000 C   0  0  0  0  0  0  0  0  0  0  0  0
   -2.6473   -4.4201   -0.0000 C   0  0  0  0  0  0  0  0  0  0  0  0
   -5.2592   -2.9073   -0.0000 C   0  0  0  0  0  0  0  0  0  0  0  0
   -4.7274   -0.8509   -0.0000 C   0  0  0  0  0  0  0  0  0  0  0  0
   -3.9710   -5.1528   -0.0000 C   0  0  0  0  0  0  0  0  0  0  0  0
   -5.2710   -4.3965   -0.0000 C   0  0  0  0  0  0  0  0  0  0  0  0
   -6.5592   -2.1510   -0.0000 C   0  0  0  0  0  0  0  0  0  0  0  0
   -6.2283   -0.8509   -0.0000 C   0  0  0  0  0  0  0  0  0  0  0  0
   -6.5711   -5.1410   -0.0000 C   0  0  0  0  0  0  0  0  0  0  0  0
   -7.8593   -2.8837   -0.0000 C   0  0  0  0  0  0  0  0  0  0  0  0
   -6.9965    0.4491   -0.0000 C   0  0  0  0  0  0  0  0  0  0  0  0
   -6.9729   -2.1273   -0.0000 C   0  0  0  0  0  0  0  0  0  0  0  0
   -7.8829   -4.3846   -0.0000 C   0  0  0  0  0  0  0  0  0  0  0  0
   -8.4975    0.4491   -0.0000 C   0  0  0  0  0  0  0  0  0  0  0  0
   -8.4738   -2.1273   -0.0000 C   0  0  0  0  0  0  0  0  0  0  0  0
   -9.1829   -5.1174   -0.0000 O   0  0  0  0  0  0  0  0  0  0  0  0
   -9.2538   -0.8391   -0.0000 C   0  0  0  0  0  0  0  0  0  0  0  0
  1  2  2  0  0  0  0
  2  3  1  0  0  0  0
  2  4  1  0  0  0  0
  5  3  1  6  0  0  0
  4  6  1  0  0  0  0
  5  7  1  0  0  0  0
  5  8  1  0  0  0  0
  7  9  1  0  0  0  0
  7 10  1  6  0  0  0
  8 11  1  0  0  0  0
  9 12  2  0  0  0  0
  9 13  1  0  0  0  0
 10 14  1  0  0  0  0
 12 15  1  0  0  0  0
 13 16  2  0  0  0  0
 14 17  2  0  0  0  0
 14 18  1  0  0  0  0
 15 19  2  0  0  0  0
 17 20  1  0  0  0  0
 18 21  2  0  0  0  0
 19 22  1  0  0  0  0
 20 23  2  0  0  0  0
  6  7  1  0  0  0  0
 11 12  1  0  0  0  0
 16 19  1  0  0  0  0
 21 23  1  0  0  0  0
M  END
>  <MolRegNo>
127294

>  <m>
=

>  <Value>
1300

>  <Unit>
nM

>  <Type>
Ki

>  <pValue>
5.89

>  <Ligand Efficiency>
0.35

>  <Binding Efficiency>
19.21

>  <Surface Efficiency>
15.78

>  <Assay Index>
36198

>  <Assay Category>


>  <Assay Organism>
Homo sapiens

>  <Target ID>
56

>  <Target Name>
Androgen Receptor

>  <Target Organism>
Homo sapiens

>  <Target Description>
Target is a single protein chain

>  <Sequence Accession>
P10275

>  <Reference>
J Med Chem 45 (12), 2417-2424 (2002)

>  <Pubmed ID>
12036351

>  <DOI>
10.1021/jm0105530

$$$$
127332
Actelion Java MolfileCreator 1.0

 26 29  0  0  0  0  0  0  0  0999 V2000
    0.0000   -0.0000   -0.0000 O   0  0  0  0  0  0  0  0  0  0  0  0
    1.2818    0.7596   -0.0000 C   0  0  0  0  0  0  0  0  0  0  0  0
    2.5755    0.0237   -0.0000 C   0  0  0  0  0  0  0  0  0  0  0  0
    1.2700    2.2788   -0.0000 C   0  0  0  0  0  0  0  0  0  0  0  0
    3.8573    0.7952   -0.0000 C   0  0  0  0  0  0  0  0  0  0  0  0
    2.5518    3.0384   -0.0000 C   0  0  0  0  0  0  0  0  0  0  0  0
    3.8455    2.3144   -0.0000 C   0  0  0  0  0  0  0  0  0  0  0  0
    5.1510    0.0593   -0.0000 C   0  0  0  0  0  0  0  0  0  0  0  0
    5.1391    3.0859   -0.0000 C   0  0  0  0  0  0  0  0  0  0  0  0
    6.4447    0.8189   -0.0000 C   0  0  0  0  0  0  0  0  0  0  0  0
    6.4210    2.3381   -0.0000 C   0  0  0  0  0  0  0  0  0  0  0  0
    5.1273    4.5932   -0.0000 C   0  0  0  0  0  0  0  0  0  0  0  0
    3.8099    3.8455   -0.0000 C   0  0  0  0  0  0  0  0  0  0  0  0
    7.7028    3.0859   -0.0000 C   0  0  0  0  0  0  0  0  0  0  0  0
    6.4210    5.3409   -0.0000 C   0  0  0  0  0  0  0  0  0  0  0  0
    3.7980    5.3528   -0.0000 C   0  0  0  0  0  0  0  0  0  0  0  0
    7.7028    4.6051   -0.0000 C   0  0  0  0  0  0  0  0  0  0  0  0
    5.0917    6.1124   -0.0000 C   0  0  0  0  0  0  0  0  0  0  0  0
    2.4924    6.1124   -0.0000 C   0  0  0  0  0  0  0  0  0  0  0  0
    9.0083    5.3528   -0.0000 O   0  0  0  0  0  0  0  0  0  0  0  0
    8.9846    3.8692   -0.0000 C   0  0  0  0  0  0  0  0  0  0  0  0
    5.0798    7.6197   -0.0000 C   0  0  0  0  0  0  0  0  0  0  0  0
    2.4687    7.6197   -0.0000 C   0  0  0  0  0  0  0  0  0  0  0  0
   10.2664    3.1333   -0.0000 C   0  0  0  0  0  0  0  0  0  0  0  0
    3.7624    8.3793   -0.0000 C   0  0  0  0  0  0  0  0  0  0  0  0
   11.5601    2.3975   -0.0000 C   0  0  0  0  0  0  0  0  0  0  0  0
  1  2  1  0  0  0  0
  2  3  2  0  0  0  0
  2  4  1  0  0  0  0
  3  5  1  0  0  0  0
  4  6  2  0  0  0  0
  5  7  2  0  0  0  0
  5  8  1  0  0  0  0
  7  9  1  0  0  0  0
  8 10  1  0  0  0  0
  9 11  1  0  0  0  0
  9 12  1  0  0  0  0
  9 13  1  6  0  0  0
 11 14  1  6  0  0  0
 12 15  1  0  0  0  0
 13 16  1  0  0  0  0
 14 17  1  0  0  0  0
 16 18  2  0  0  0  0
 16 19  1  0  0  0  0
 17 20  1  0  0  0  0
 17 21  1  1  0  0  0
 18 22  1  0  0  0  0
 19 23  2  0  0  0  0
 21 24  3  0  0  0  0
 22 25  2  0  0  0  0
 24 26  1  0  0  0  0
  6  7  1  0  0  0  0
 10 11  1  0  0  0  0
 15 17  1  0  0  0  0
 23 25  1  0  0  0  0
M  END
>  <MolRegNo>
127332

>  <m>
=

>  <Value>
650

>  <Unit>
nM

>  <Type>
Ki

>  <pValue>
6.19

>  <Ligand Efficiency>
0.32

>  <Binding Efficiency>
17.86

>  <Surface Efficiency>
15.29

>  <Assay Index>
36199

>  <Assay Category>


>  <Assay Organism>
Homo sapiens

>  <Target ID>
56

>  <Target Name>
Androgen Receptor

>  <Target Organism>
Homo sapiens

>  <Target Description>
Target is a single protein chain

>  <Sequence Accession>
P10275

>  <Reference>
J Med Chem 45 (12), 2417-2424 (2002)

>  <Pubmed ID>
12036351

>  <DOI>
10.1021/jm0105530

$$$$
127814
Actelion Java MolfileCreator 1.0

 24 27  0  0  1  0  0  0  0  0999 V2000
    0.0000   -0.0000   -0.0000 O   0  0  0  0  0  0  0  0  0  0  0  0
    1.2867    0.7625   -0.0000 C   0  0  0  0  0  0  0  0  0  0  0  0
    2.5615    0.0238   -0.0000 C   0  0  0  0  0  0  0  0  0  0  0  0
    1.2748    2.2636   -0.0000 C   0  0  0  0  0  0  0  0  0  0  0  0
    3.8482    0.7863   -0.0000 C   0  0  0  0  0  0  0  0  0  0  0  0
    2.5496    3.0500   -0.0000 C   0  0  0  0  0  0  0  0  0  0  0  0
    3.8363    2.2875   -0.0000 C   0  0  0  0  0  0  0  0  0  0  0  0
    5.1230    0.0477   -0.0000 C   0  0  0  0  0  0  0  0  0  0  0  0
    5.1111    3.0619   -0.0000 C   0  0  0  0  0  0  0  0  0  0  0  0
    3.8005    3.7886   -0.0000 C   0  0  0  0  0  0  0  0  0  0  0  0
    6.4216    0.8101   -0.0000 C   0  0  0  0  0  0  0  0  0  0  0  0
    6.4097    2.3113   -0.0000 C   0  0  0  0  0  0  0  0  0  0  0  0
    5.0872    4.5869   -0.0000 C   0  0  0  0  0  0  0  0  0  0  0  0
    2.4781    4.5511   -0.0000 C   0  0  0  0  0  0  0  0  0  0  0  0
    7.6964    3.0738   -0.0000 C   0  0  0  0  0  0  0  0  0  0  0  0
    6.3859    5.3493   -0.0000 C   0  0  0  0  0  0  0  0  0  0  0  0
    2.4662    6.0523   -0.0000 C   0  0  0  0  0  0  0  0  0  0  0  0
    1.1914    3.8005   -0.0000 C   0  0  0  0  0  0  0  0  0  0  0  0
    7.6964    4.5749   -0.0000 C   0  0  0  0  0  0  0  0  0  0  0  0
    1.1437    6.8148   -0.0000 C   0  0  0  0  0  0  0  0  0  0  0  0
   -0.1072    4.5511   -0.0000 C   0  0  0  0  0  0  0  0  0  0  0  0
    8.9950    5.3374   -0.0000 O   0  0  0  0  0  0  0  0  0  0  0  0
   -0.1430    6.0642   -0.0000 C   0  0  0  0  0  0  0  0  0  0  0  0
   10.2579    4.5988   -0.0000 C   0  0  0  0  0  0  0  0  0  0  0  0
  1  2  2  0  0  0  0
  2  3  1  0  0  0  0
  2  4  1  0  0  0  0
  3  5  2  0  0  0  0
  4  6  1  0  0  0  0
  5  7  1  0  0  0  0
  5  8  1  0  0  0  0
  7  9  1  0  0  0  0
  7 10  1  6  0  0  0
  8 11  1  0  0  0  0
  9 12  2  0  0  0  0
  9 13  1  0  0  0  0
 10 14  1  0  0  0  0
 12 15  1  0  0  0  0
 13 16  2  0  0  0  0
 14 17  2  0  0  0  0
 14 18  1  0  0  0  0
 15 19  2  0  0  0  0
 17 20  1  0  0  0  0
 18 21  2  0  0  0  0
 19 22  1  0  0  0  0
 20 23  2  0  0  0  0
 22 24  1  0  0  0  0
  6  7  1  0  0  0  0
 11 12  1  0  0  0  0
 16 19  1  0  0  0  0
 21 23  1  0  0  0  0
M  END
>  <MolRegNo>
127814

>  <m>
=

>  <Value>
690

>  <Unit>
nM

>  <Type>
Ki

>  <pValue>
6.16

>  <Ligand Efficiency>
0.35

>  <Binding Efficiency>
19.35

>  <Surface Efficiency>
23.43

>  <Assay Index>
36198

>  <Assay Category>


>  <Assay Organism>
Homo sapiens

>  <Target ID>
56

>  <Target Name>
Androgen Receptor

>  <Target Organism>
Homo sapiens

>  <Target Description>
Target is a single protein chain

>  <Sequence Accession>
P10275

>  <Reference>
J Med Chem 45 (12), 2417-2424 (2002)

>  <Pubmed ID>
12036351

>  <DOI>
10.1021/jm0105530

$$$$
127976
Actelion Java MolfileCreator 1.0

 31 35  0  0  0  0  0  0  0  0999 V2000
    0.0000   -0.0000   -0.0000 O   0  0  0  0  0  0  0  0  0  0  0  0
    1.2812    0.7592   -0.0000 C   0  0  0  0  0  0  0  0  0  0  0  0
    2.5743    0.0237   -0.0000 C   0  0  0  0  0  0  0  0  0  0  0  0
    1.2694    2.2777   -0.0000 C   0  0  0  0  0  0  0  0  0  0  0  0
    3.8555    0.7948   -0.0000 C   0  0  0  0  0  0  0  0  0  0  0  0
    2.5506    3.0370   -0.0000 C   0  0  0  0  0  0  0  0  0  0  0  0
    3.8437    2.3133   -0.0000 C   0  0  0  0  0  0  0  0  0  0  0  0
    5.1367    0.0593   -0.0000 C   0  0  0  0  0  0  0  0  0  0  0  0
    5.1249    3.0844   -0.0000 C   0  0  0  0  0  0  0  0  0  0  0  0
    3.8199    3.8199   -0.0000 C   0  0  0  0  0  0  0  0  0  0  0  0
    6.4417    0.8186   -0.0000 C   0  0  0  0  0  0  0  0  0  0  0  0
    5.1130    4.5910   -0.0000 C   0  0  0  0  0  0  0  0  0  0  0  0
    6.4180    2.3370   -0.0000 C   0  0  0  0  0  0  0  0  0  0  0  0
    2.5031    4.5673   -0.0000 C   0  0  0  0  0  0  0  0  0  0  0  0
    6.4180    5.3384   -0.0000 C   0  0  0  0  0  0  0  0  0  0  0  0
    7.6992    3.0963   -0.0000 C   0  0  0  0  0  0  0  0  0  0  0  0
    2.4913    6.0858   -0.0000 C   0  0  0  0  0  0  0  0  0  0  0  0
    1.2100    3.8199   -0.0000 C   0  0  0  0  0  0  0  0  0  0  0  0
    7.6992    4.5910   -0.0000 C   0  0  0  0  0  0  0  0  0  0  0  0
    9.1109    2.6336   -0.0000 C   0  0  0  0  0  0  0  0  0  0  0  0
    1.1744    6.8332   -0.0000 C   0  0  0  0  0  0  0  0  0  0  0  0
   -0.1068    4.5673   -0.0000 C   0  0  0  0  0  0  0  0  0  0  0  0
    9.1227    5.0537   -0.0000 C   0  0  0  0  0  0  0  0  0  0  0  0
    7.6754    6.1095   -0.0000 C   0  0  0  0  0  0  0  0  0  0  0  0
   10.0006    3.8437   -0.0000 C   0  0  0  0  0  0  0  0  0  0  0  0
   -0.1305    6.0858   -0.0000 C   0  0  0  0  0  0  0  0  0  0  0  0
    9.8464    6.3705   -0.0000 O   0  0  0  0  0  0  0  0  0  0  0  0
   10.6056    5.0656   -0.0000 C   0  0  0  0  0  0  0  0  0  0  0  0
   -1.4473    6.8332   -0.0000 C   0  0  0  0  0  0  0  0  0  0  0  0
   12.0885    5.0774   -0.0000 C   0  0  0  0  0  0  0  0  0  0  0  0
   13.5714    5.0893   -0.0000 C   0  0  0  0  0  0  0  0  0  0  0  0
  1  2  2  0  0  0  0
  2  3  1  0  0  0  0
  2  4  1  0  0  0  0
  3  5  2  0  0  0  0
  4  6  1  0  0  0  0
  5  7  1  0  0  0  0
  5  8  1  0  0  0  0
  7  9  1  0  0  0  0
  7 10  1  1  0  0  0
  8 11  1  0  0  0  0
  9 12  2  0  0  0  0
  9 13  1  0  0  0  0
 10 14  1  0  0  0  0
 12 15  1  0  0  0  0
 13 16  1  0  0  0  0
 14 17  2  0  0  0  0
 14 18  1  0  0  0  0
 15 19  1  0  0  0  0
 16 20  1  0  0  0  0
 17 21  1  0  0  0  0
 18 22  2  0  0  0  0
 19 23  1  0  0  0  0
 19 24  1  1  0  0  0
 20 25  1  0  0  0  0
 21 26  2  0  0  0  0
 23 27  1  1  0  0  0
 23 28  1  0  0  0  0
 26 29  1  0  0  0  0
 28 30  3  0  0  0  0
 30 31  1  0  0  0  0
  6  7  1  0  0  0  0
 11 13  1  0  0  0  0
 16 19  1  0  0  0  0
 22 26  1  0  0  0  0
 23 25  1  0  0  0  0
M  END
>  <MolRegNo>
127976

>  <m>
=

>  <Value>
90

>  <Unit>
nM

>  <Type>
Ki

>  <pValue>
7.05

>  <Ligand Efficiency>
0.31

>  <Binding Efficiency>
16.99

>  <Surface Efficiency>
18.89

>  <Assay Index>
36198

>  <Assay Category>


>  <Assay Organism>
Homo sapiens

>  <Target ID>
56

>  <Target Name>
Androgen Receptor

>  <Target Organism>
Homo sapiens

>  <Target Description>
Target is a single protein chain

>  <Sequence Accession>
P10275

>  <Reference>
J Med Chem 45 (12), 2417-2424 (2002)

>  <Pubmed ID>
12036351

>  <DOI>
10.1021/jm0105530

$$$$
77491
Actelion Java MolfileCreator 1.0

 20 21  0  0  1  0  0  0  0  0999 V2000
    0.0000   -0.0000   -0.0000 Br  0  0  0  0  0  0  0  0  0  0  0  0
    1.2923   -0.7470   -0.0000 C   0  0  0  0  0  0  0  0  0  0  0  0
    2.5847    0.0119   -0.0000 C   0  0  0  0  0  0  0  0  0  0  0  0
    1.2805   -2.2409   -0.0000 C   0  0  0  0  0  0  0  0  0  0  0  0
    2.5728    1.5295   -0.0000 O   0  0  0  0  0  0  0  0  0  0  0  0
    3.8889   -0.7351   -0.0000 C   0  0  0  0  0  0  0  0  0  0  0  0
    2.5728   -2.9759   -0.0000 C   0  0  0  0  0  0  0  0  0  0  0  0
    3.8770    2.2883   -0.0000 C   0  0  0  0  0  0  0  0  0  0  0  0
    3.8770   -2.2171   -0.0000 C   0  0  0  0  0  0  0  0  0  0  0  0
    2.5610   -4.4698   -0.0000 O   0  0  0  0  0  0  0  0  0  0  0  0
    5.1694   -2.9404   -0.0000 C   0  0  0  0  0  0  0  0  0  0  0  0
    6.4617   -2.1816   -0.0000 C   0  0  0  0  0  0  0  0  0  0  0  0
    6.4499   -0.6640   -0.0000 C   0  0  0  0  0  0  0  0  0  0  0  0
    7.7541   -2.9404   -0.0000 C   0  0  0  0  0  0  0  0  0  0  0  0
    5.1575    0.1067   -0.0000 C   0  0  0  0  0  0  0  0  0  0  0  0
    7.7659    0.0830   -0.0000 C   0  0  0  0  0  0  0  0  0  0  0  0
    9.0464   -2.1934   -0.0000 C   0  0  0  0  0  0  0  0  0  0  0  0
    6.6751   -3.9837   -0.0000 C   0  0  0  0  0  0  0  0  0  0  0  0
    8.8093   -3.9837   -0.0000 C   0  0  0  0  0  0  0  0  0  0  0  0
    9.0583   -0.6640   -0.0000 C   0  0  0  0  0  0  0  0  0  0  0  0
  1  2  1  0  0  0  0
  2  3  2  0  0  0  0
  2  4  1  0  0  0  0
  3  5  1  0  0  0  0
  3  6  1  0  0  0  0
  4  7  2  0  0  0  0
  5  8  1  0  0  0  0
  6  9  2  0  0  0  0
  7 10  1  0  0  0  0
  9 11  1  0  0  0  0
 12 11  1  6  0  0  0
 12 13  1  0  0  0  0
 12 14  1  0  0  0  0
 13 15  2  0  0  0  0
 13 16  1  0  0  0  0
 14 17  1  0  0  0  0
 14 18  1  0  0  0  0
 14 19  1  0  0  0  0
 16 20  1  0  0  0  0
  7  9  1  0  0  0  0
 17 20  1  0  0  0  0
M  END
>  <MolRegNo>
77491

>  <m>
=

>  <Value>
1099

>  <Unit>
nM

>  <Type>
Ki

>  <pValue>
5.96

>  <Ligand Efficiency>
0.41

>  <Binding Efficiency>
17.56

>  <Surface Efficiency>
20.23

>  <Assay Index>
36069

>  <Assay Category>


>  <Assay Organism>


>  <Target ID>
56

>  <Target Name>
Androgen Receptor

>  <Target Organism>
Homo sapiens

>  <Target Description>
Target is a single protein chain

>  <Sequence Accession>
P10275

>  <Reference>
J Med Chem 39 (9), 1778-1789 (1996)

>  <Pubmed ID>
8627601

>  <DOI>
10.1021/jm950747d

$$$$
77284
Actelion Java MolfileCreator 1.0

 19 20  0  0  0  0  0  0  0  0999 V2000
    0.0000   -0.0000   -0.0000 Br  0  0  0  0  0  0  0  0  0  0  0  0
    1.2880   -0.7394   -0.0000 C   0  0  0  0  0  0  0  0  0  0  0  0
    2.5761    0.0239   -0.0000 C   0  0  0  0  0  0  0  0  0  0  0  0
    1.2761   -2.2421   -0.0000 C   0  0  0  0  0  0  0  0  0  0  0  0
    2.5641    1.5385   -0.0000 O   0  0  0  0  0  0  0  0  0  0  0  0
    3.8760   -0.7275   -0.0000 C   0  0  0  0  0  0  0  0  0  0  0  0
    2.5641   -2.9816   -0.0000 C   0  0  0  0  0  0  0  0  0  0  0  0
    3.8522    2.3018   -0.0000 C   0  0  0  0  0  0  0  0  0  0  0  0
    3.8641   -2.2064   -0.0000 C   0  0  0  0  0  0  0  0  0  0  0  0
    2.5522   -4.4723   -0.0000 O   0  0  0  0  0  0  0  0  0  0  0  0
    5.1641   -2.9458   -0.0000 C   0  0  0  0  0  0  0  0  0  0  0  0
    6.4521   -2.1587   -0.0000 C   0  0  0  0  0  0  0  0  0  0  0  0
    6.7622   -0.6798   -0.0000 C   0  0  0  0  0  0  0  0  0  0  0  0
    7.7401   -2.9219   -0.0000 C   0  0  0  0  0  0  0  0  0  0  0  0
    5.7604    0.4651   -0.0000 C   0  0  0  0  0  0  0  0  0  0  0  0
    8.2530   -0.5367   -0.0000 C   0  0  0  0  0  0  0  0  0  0  0  0
    8.8493   -1.9082   -0.0000 C   0  0  0  0  0  0  0  0  0  0  0  0
    6.6429   -3.9714   -0.0000 C   0  0  0  0  0  0  0  0  0  0  0  0
    8.7897   -3.9714   -0.0000 C   0  0  0  0  0  0  0  0  0  0  0  0
  1  2  1  0  0  0  0
  2  3  2  0  0  0  0
  2  4  1  0  0  0  0
  3  5  1  0  0  0  0
  3  6  1  0  0  0  0
  4  7  2  0  0  0  0
  5  8  1  0  0  0  0
  6  9  2  0  0  0  0
  7 10  1  0  0  0  0
  9 11  1  0  0  0  0
 11 12  1  0  0  0  0
 12 13  1  0  0  0  0
 12 14  1  0  0  0  0
 13 15  2  0  0  0  0
 13 16  1  0  0  0  0
 14 17  1  0  0  0  0
 14 18  1  0  0  0  0
 14 19  1  0  0  0  0
  7  9  1  0  0  0  0
 16 17  1  0  0  0  0
M  END
>  <MolRegNo>
77284

>  <m>
=

>  <Value>
1923

>  <Unit>
nM

>  <Type>
Ki

>  <pValue>
5.72

>  <Ligand Efficiency>
0.41

>  <Binding Efficiency>
17.57

>  <Surface Efficiency>
19.4

>  <Assay Index>
36069

>  <Assay Category>


>  <Assay Organism>


>  <Target ID>
56

>  <Target Name>
Androgen Receptor

>  <Target Organism>
Homo sapiens

>  <Target Description>
Target is a single protein chain

>  <Sequence Accession>
P10275

>  <Reference>
J Med Chem 39 (9), 1778-1789 (1996)

>  <Pubmed ID>
8627601

>  <DOI>
10.1021/jm950747d

$$$$
77335
Actelion Java MolfileCreator 1.0

 22 23  0  0  1  0  0  0  0  0999 V2000
    0.0000   -0.0000   -0.0000 Br  0  0  0  0  0  0  0  0  0  0  0  0
    1.2882   -0.7395   -0.0000 C   0  0  0  0  0  0  0  0  0  0  0  0
    2.5764    0.0239   -0.0000 C   0  0  0  0  0  0  0  0  0  0  0  0
    1.2763   -2.2424   -0.0000 C   0  0  0  0  0  0  0  0  0  0  0  0
    2.5645    1.5387   -0.0000 O   0  0  0  0  0  0  0  0  0  0  0  0
    3.8765   -0.7276   -0.0000 C   0  0  0  0  0  0  0  0  0  0  0  0
    2.5645   -2.9819   -0.0000 C   0  0  0  0  0  0  0  0  0  0  0  0
    3.8527    2.3021   -0.0000 C   0  0  0  0  0  0  0  0  0  0  0  0
    3.8646   -2.2066   -0.0000 C   0  0  0  0  0  0  0  0  0  0  0  0
    2.5525   -4.4729   -0.0000 O   0  0  0  0  0  0  0  0  0  0  0  0
    5.1647   -2.9462   -0.0000 C   0  0  0  0  0  0  0  0  0  0  0  0
    6.4529   -2.1589   -0.0000 C   0  0  0  0  0  0  0  0  0  0  0  0
    6.4410   -0.6441   -0.0000 C   0  0  0  0  0  0  0  0  0  0  0  0
    7.7411   -2.9223   -0.0000 C   0  0  0  0  0  0  0  0  0  0  0  0
    5.1289    0.1193   -0.0000 C   0  0  0  0  0  0  0  0  0  0  0  0
    7.7531    0.0954   -0.0000 C   0  0  0  0  0  0  0  0  0  0  0  0
    9.0293   -2.1709   -0.0000 C   0  0  0  0  0  0  0  0  0  0  0  0
    8.7908   -3.9720   -0.0000 C   0  0  0  0  0  0  0  0  0  0  0  0
    6.6438   -3.9720   -0.0000 C   0  0  0  0  0  0  0  0  0  0  0  0
    9.0413   -0.6560   -0.0000 C   0  0  0  0  0  0  0  0  0  0  0  0
   10.3414    0.1074   -0.0000 C   0  0  0  0  0  0  0  0  0  0  0  0
   11.6177   -0.6441   -0.0000 O   0  0  0  0  0  0  0  0  0  0  0  0
  1  2  1  0  0  0  0
  2  3  2  0  0  0  0
  2  4  1  0  0  0  0
  3  5  1  0  0  0  0
  3  6  1  0  0  0  0
  4  7  2  0  0  0  0
  5  8  1  0  0  0  0
  6  9  2  0  0  0  0
  7 10  1  0  0  0  0
  9 11  1  0  0  0  0
 12 11  1  6  0  0  0
 12 13  1  0  0  0  0
 12 14  1  0  0  0  0
 13 15  2  0  0  0  0
 13 16  1  0  0  0  0
 14 17  1  0  0  0  0
 14 18  1  0  0  0  0
 14 19  1  0  0  0  0
 16 20  1  0  0  0  0
 20 21  1  6  0  0  0
 21 22  1  0  0  0  0
  7  9  1  0  0  0  0
 17 20  1  0  0  0  0
M  END
>  <MolRegNo>
77335

>  <m>
=

>  <Value>
6810

>  <Unit>
nM

>  <Type>
Ki

>  <pValue>
5.17

>  <Ligand Efficiency>
0.32

>  <Binding Efficiency>
13.99

>  <Surface Efficiency>
10.4

>  <Assay Index>
36069

>  <Assay Category>


>  <Assay Organism>


>  <Target ID>
56

>  <Target Name>
Androgen Receptor

>  <Target Organism>
Homo sapiens

>  <Target Description>
Target is a single protein chain

>  <Sequence Accession>
P10275

>  <Reference>
J Med Chem 39 (9), 1778-1789 (1996)

>  <Pubmed ID>
8627601

>  <DOI>
10.1021/jm950747d

$$$$
1385963
Actelion Java MolfileCreator 1.0

 21 22  0  0  0  0  0  0  0  0999 V2000
    0.0000   -0.0000   -0.0000 O   0  0  0  0  0  0  0  0  0  0  0  0
    1.2892    0.7520   -0.0000 N   0  0  0  0  0  0  0  0  0  0  0  0
    1.2892    2.2799   -0.0000 O   0  0  0  0  0  0  0  0  0  0  0  0
    2.5783    0.0119   -0.0000 C   0  0  0  0  0  0  0  0  0  0  0  0
    3.8675    0.7639   -0.0000 C   0  0  0  0  0  0  0  0  0  0  0  0
    2.5664   -1.4801   -0.0000 C   0  0  0  0  0  0  0  0  0  0  0  0
    5.1686    0.0119   -0.0000 C   0  0  0  0  0  0  0  0  0  0  0  0
    3.8556   -2.2202   -0.0000 C   0  0  0  0  0  0  0  0  0  0  0  0
    5.1566   -1.4563   -0.0000 C   0  0  0  0  0  0  0  0  0  0  0  0
    6.4458   -2.1844   -0.0000 C   0  0  0  0  0  0  0  0  0  0  0  0
    7.7350   -1.4205   -0.0000 C   0  0  0  0  0  0  0  0  0  0  0  0
    6.2668   -1.0027   -0.0000 O   0  0  0  0  0  0  0  0  0  0  0  0
    7.7230    0.0955   -0.0000 C   0  0  0  0  0  0  0  0  0  0  0  0
    9.0241   -2.1725   -0.0000 C   0  0  0  0  0  0  0  0  0  0  0  0
    9.0241    0.8475   -0.0000 C   0  0  0  0  0  0  0  0  0  0  0  0
    6.4100    0.8594   -0.0000 C   0  0  0  0  0  0  0  0  0  0  0  0
   10.3133   -1.4324   -0.0000 C   0  0  0  0  0  0  0  0  0  0  0  0
    7.9379   -3.2229   -0.0000 C   0  0  0  0  0  0  0  0  0  0  0  0
   10.0746   -3.2229   -0.0000 C   0  0  0  0  0  0  0  0  0  0  0  0
   10.3133    0.0955   -0.0000 C   0  0  0  0  0  0  0  0  0  0  0  0
   11.6144    0.8475   -0.0000 C   0  0  0  0  0  0  0  0  0  0  0  0
  1  2  2  0  0  0  0
  2  3  1  0  0  0  0
  2  4  1  0  0  0  0
  4  5  2  0  0  0  0
  4  6  1  0  0  0  0
  5  7  1  0  0  0  0
  6  8  2  0  0  0  0
  7  9  2  0  0  0  0
  9 10  1  0  0  0  0
 10 11  1  0  0  0  0
 11 12  1  0  0  0  0
 11 13  1  0  0  0  0
 11 14  1  0  0  0  0
 13 15  1  0  0  0  0
 13 16  2  0  0  0  0
 14 17  1  0  0  0  0
 14 18  1  0  0  0  0
 14 19  1  0  0  0  0
 15 20  2  0  0  0  0
 20 21  1  0  0  0  0
  8  9  1  0  0  0  0
 17 20  1  0  0  0  0
M  CHG  2   2   1   3  -1
M  END
>  <MolRegNo>
1385963

>  <m>
=

>  <Value>
6454

>  <Unit>
nM

>  <Type>
Ki

>  <pValue>
5.19

>  <Ligand Efficiency>
0.34

>  <Binding Efficiency>
18.06

>  <Surface Efficiency>
8.19

>  <Assay Index>
36069

>  <Assay Category>


>  <Assay Organism>


>  <Target ID>
56

>  <Target Name>
Androgen Receptor

>  <Target Organism>
Homo sapiens

>  <Target Description>
Target is a single protein chain

>  <Sequence Accession>
P10275

>  <Reference>
J Med Chem 39 (9), 1778-1789 (1996)

>  <Pubmed ID>
8627601

>  <DOI>
10.1021/jm950747d

$$$$
77142
Actelion Java MolfileCreator 1.0

 20 21  0  0  1  0  0  0  0  0999 V2000
    0.0000   -0.0000   -0.0000 Br  0  0  0  0  0  0  0  0  0  0  0  0
    1.2918   -0.7467   -0.0000 C   0  0  0  0  0  0  0  0  0  0  0  0
    2.5956    0.0119   -0.0000 C   0  0  0  0  0  0  0  0  0  0  0  0
    1.2918   -2.2400   -0.0000 C   0  0  0  0  0  0  0  0  0  0  0  0
    2.5837    1.5289   -0.0000 O   0  0  0  0  0  0  0  0  0  0  0  0
    3.8874   -0.7467   -0.0000 C   0  0  0  0  0  0  0  0  0  0  0  0
    2.5837   -2.9748   -0.0000 C   0  0  0  0  0  0  0  0  0  0  0  0
    3.8755    2.2756   -0.0000 C   0  0  0  0  0  0  0  0  0  0  0  0
    3.8755   -2.2163   -0.0000 C   0  0  0  0  0  0  0  0  0  0  0  0
    2.5718   -4.4681   -0.0000 O   0  0  0  0  0  0  0  0  0  0  0  0
    5.1674   -2.9511   -0.0000 C   0  0  0  0  0  0  0  0  0  0  0  0
    6.4592   -2.1926   -0.0000 C   0  0  0  0  0  0  0  0  0  0  0  0
    6.4592   -0.6756   -0.0000 C   0  0  0  0  0  0  0  0  0  0  0  0
    7.7511   -2.9393   -0.0000 C   0  0  0  0  0  0  0  0  0  0  0  0
    5.1437    0.1067   -0.0000 C   0  0  0  0  0  0  0  0  0  0  0  0
    7.7748    0.0830   -0.0000 C   0  0  0  0  0  0  0  0  0  0  0  0
    9.0548   -2.1926   -0.0000 C   0  0  0  0  0  0  0  0  0  0  0  0
    7.7274   -4.4326   -0.0000 C   0  0  0  0  0  0  0  0  0  0  0  0
    9.0667   -0.6756   -0.0000 C   0  0  0  0  0  0  0  0  0  0  0  0
   10.3585    0.0830   -0.0000 C   0  0  0  0  0  0  0  0  0  0  0  0
  1  2  1  0  0  0  0
  2  3  2  0  0  0  0
  2  4  1  0  0  0  0
  3  5  1  0  0  0  0
  3  6  1  0  0  0  0
  4  7  2  0  0  0  0
  5  8  1  0  0  0  0
  6  9  2  0  0  0  0
  7 10  1  0  0  0  0
  9 11  1  0  0  0  0
 12 11  1  6  0  0  0
 12 13  1  0  0  0  0
 12 14  1  0  0  0  0
 13 15  2  0  0  0  0
 13 16  1  0  0  0  0
 14 17  1  0  0  0  0
 14 18  1  1  0  0  0
 16 19  1  0  0  0  0
 19 20  1  6  0  0  0
  7  9  1  0  0  0  0
 17 19  1  0  0  0  0
M  END
>  <MolRegNo>
77142

>  <m>
=

>  <Value>
1139

>  <Unit>
nM

>  <Type>
Ki

>  <pValue>
5.94

>  <Ligand Efficiency>
0.41

>  <Binding Efficiency>
17.52

>  <Surface Efficiency>
20.17

>  <Assay Index>
36069

>  <Assay Category>


>  <Assay Organism>


>  <Target ID>
56

>  <Target Name>
Androgen Receptor

>  <Target Organism>
Homo sapiens

>  <Target Description>
Target is a single protein chain

>  <Sequence Accession>
P10275

>  <Reference>
J Med Chem 39 (9), 1778-1789 (1996)

>  <Pubmed ID>
8627601

>  <DOI>
10.1021/jm950747d

$$$$
77286
Actelion Java MolfileCreator 1.0

 20 21  0  0  0  0  0  0  0  0999 V2000
    0.0000   -0.0000   -0.0000 Br  0  0  0  0  0  0  0  0  0  0  0  0
    1.2877   -0.7392   -0.0000 C   0  0  0  0  0  0  0  0  0  0  0  0
    2.5753    0.0238   -0.0000 C   0  0  0  0  0  0  0  0  0  0  0  0
    1.2757   -2.2415   -0.0000 C   0  0  0  0  0  0  0  0  0  0  0  0
    2.5634    1.5381   -0.0000 O   0  0  0  0  0  0  0  0  0  0  0  0
    3.8749   -0.7273   -0.0000 C   0  0  0  0  0  0  0  0  0  0  0  0
    2.5634   -2.9807   -0.0000 C   0  0  0  0  0  0  0  0  0  0  0  0
    3.8511    2.3011   -0.0000 C   0  0  0  0  0  0  0  0  0  0  0  0
    3.8630   -2.2057   -0.0000 C   0  0  0  0  0  0  0  0  0  0  0  0
    2.5515   -4.4711   -0.0000 O   0  0  0  0  0  0  0  0  0  0  0  0
    5.1626   -2.9450   -0.0000 C   0  0  0  0  0  0  0  0  0  0  0  0
    6.4503   -2.1700   -0.0000 C   0  0  0  0  0  0  0  0  0  0  0  0
    6.4145   -0.6558   -0.0000 C   0  0  0  0  0  0  0  0  0  0  0  0
    7.7379   -2.9211   -0.0000 C   0  0  0  0  0  0  0  0  0  0  0  0
    5.1030    0.1073   -0.0000 C   0  0  0  0  0  0  0  0  0  0  0  0
    7.7260    0.1073   -0.0000 C   0  0  0  0  0  0  0  0  0  0  0  0
    9.0137   -2.1580   -0.0000 C   0  0  0  0  0  0  0  0  0  0  0  0
    6.6410   -3.9703   -0.0000 C   0  0  0  0  0  0  0  0  0  0  0  0
    8.7872   -3.9703   -0.0000 C   0  0  0  0  0  0  0  0  0  0  0  0
    9.0137   -0.6319   -0.0000 C   0  0  0  0  0  0  0  0  0  0  0  0
  1  2  1  0  0  0  0
  2  3  2  0  0  0  0
  2  4  1  0  0  0  0
  3  5  1  0  0  0  0
  3  6  1  0  0  0  0
  4  7  2  0  0  0  0
  5  8  1  0  0  0  0
  6  9  2  0  0  0  0
  7 10  1  0  0  0  0
  9 11  1  0  0  0  0
 11 12  1  0  0  0  0
 12 13  1  0  0  0  0
 12 14  1  0  0  0  0
 13 15  2  0  0  0  0
 13 16  1  0  0  0  0
 14 17  1  0  0  0  0
 14 18  1  0  0  0  0
 14 19  1  0  0  0  0
 16 20  1  0  0  0  0
  7  9  1  0  0  0  0
 17 20  1  0  0  0  0
M  END
>  <MolRegNo>
77286

>  <m>
=

>  <Value>
1542

>  <Unit>
nM

>  <Type>
Ki

>  <pValue>
5.81

>  <Ligand Efficiency>
0.4

>  <Binding Efficiency>
17.13

>  <Surface Efficiency>
19.73

>  <Assay Index>
36069

>  <Assay Category>


>  <Assay Organism>


>  <Target ID>
56

>  <Target Name>
Androgen Receptor

>  <Target Organism>
Homo sapiens

>  <Target Description>
Target is a single protein chain

>  <Sequence Accession>
P10275

>  <Reference>
J Med Chem 39 (9), 1778-1789 (1996)

>  <Pubmed ID>
8627601

>  <DOI>
10.1021/jm950747d

$$$$
77528
Actelion Java MolfileCreator 1.0

 24 25  0  0  0  0  0  0  0  0999 V2000
    0.0000   -0.0000   -0.0000 Br  0  0  0  0  0  0  0  0  0  0  0  0
    1.2891   -0.7281   -0.0000 C   0  0  0  0  0  0  0  0  0  0  0  0
    2.5783    0.0239   -0.0000 C   0  0  0  0  0  0  0  0  0  0  0  0
    1.2772   -2.2321   -0.0000 C   0  0  0  0  0  0  0  0  0  0  0  0
    2.5664    1.5398   -0.0000 O   0  0  0  0  0  0  0  0  0  0  0  0
    3.8794   -0.7281   -0.0000 C   0  0  0  0  0  0  0  0  0  0  0  0
    2.5664   -2.9722   -0.0000 C   0  0  0  0  0  0  0  0  0  0  0  0
    3.8555    2.3038   -0.0000 C   0  0  0  0  0  0  0  0  0  0  0  0
    3.8674   -2.2083   -0.0000 C   0  0  0  0  0  0  0  0  0  0  0  0
    2.5544   -4.4643   -0.0000 O   0  0  0  0  0  0  0  0  0  0  0  0
    5.1566   -2.9483   -0.0000 C   0  0  0  0  0  0  0  0  0  0  0  0
    1.2414   -5.2043   -0.0000 C   0  0  0  0  0  0  0  0  0  0  0  0
    6.4457   -2.1605   -0.0000 C   0  0  0  0  0  0  0  0  0  0  0  0
   -0.0716   -4.4404   -0.0000 O   0  0  0  0  0  0  0  0  0  0  0  0
    1.2295   -6.6964   -0.0000 C   0  0  0  0  0  0  0  0  0  0  0  0
    6.4338   -0.6446   -0.0000 C   0  0  0  0  0  0  0  0  0  0  0  0
    7.7349   -2.9245   -0.0000 C   0  0  0  0  0  0  0  0  0  0  0  0
    7.7349    0.0955   -0.0000 C   0  0  0  0  0  0  0  0  0  0  0  0
    5.1208    0.1194   -0.0000 C   0  0  0  0  0  0  0  0  0  0  0  0
    9.0240   -2.1725   -0.0000 C   0  0  0  0  0  0  0  0  0  0  0  0
    8.7972   -3.9629   -0.0000 C   0  0  0  0  0  0  0  0  0  0  0  0
    6.6487   -3.9629   -0.0000 C   0  0  0  0  0  0  0  0  0  0  0  0
    9.0240   -0.6565   -0.0000 C   0  0  0  0  0  0  0  0  0  0  0  0
   10.3251    0.0955   -0.0000 C   0  0  0  0  0  0  0  0  0  0  0  0
  1  2  1  0  0  0  0
  2  3  2  0  0  0  0
  2  4  1  0  0  0  0
  3  5  1  0  0  0  0
  3  6  1  0  0  0  0
  4  7  2  0  0  0  0
  5  8  1  0  0  0  0
  6  9  2  0  0  0  0
  7 10  1  0  0  0  0
  9 11  1  0  0  0  0
 10 12  1  0  0  0  0
 11 13  1  0  0  0  0
 12 14  2  0  0  0  0
 12 15  1  0  0  0  0
 13 16  1  0  0  0  0
 13 17  1  0  0  0  0
 16 18  1  0  0  0  0
 16 19  2  0  0  0  0
 17 20  1  0  0  0  0
 17 21  1  0  0  0  0
 17 22  1  0  0  0  0
 18 23  2  0  0  0  0
 23 24  1  0  0  0  0
  7  9  1  0  0  0  0
 20 23  1  0  0  0  0
M  END
>  <MolRegNo>
77528

>  <m>
=

>  <Value>
1942

>  <Unit>
nM

>  <Type>
Ki

>  <pValue>
5.71

>  <Ligand Efficiency>
0.33

>  <Binding Efficiency>
14.52

>  <Surface Efficiency>
16.08

>  <Assay Index>
36069

>  <Assay Category>


>  <Assay Organism>


>  <Target ID>
56

>  <Target Name>
Androgen Receptor

>  <Target Organism>
Homo sapiens

>  <Target Description>
Target is a single protein chain

>  <Sequence Accession>
P10275

>  <Reference>
J Med Chem 39 (9), 1778-1789 (1996)

>  <Pubmed ID>
8627601

>  <DOI>
10.1021/jm950747d

$$$$
77353
Actelion Java MolfileCreator 1.0

 21 22  0  0  0  0  0  0  0  0999 V2000
    0.0000   -0.0000   -0.0000 O   0  0  0  0  0  0  0  0  0  0  0  0
    1.2901    0.7526   -0.0000 N   0  0  0  0  0  0  0  0  0  0  0  0
    1.2901    2.2816   -0.0000 O   0  0  0  0  0  0  0  0  0  0  0  0
    2.5803    0.0119   -0.0000 C   0  0  0  0  0  0  0  0  0  0  0  0
    3.8704    0.7645   -0.0000 C   0  0  0  0  0  0  0  0  0  0  0  0
    2.5683   -1.4813   -0.0000 C   0  0  0  0  0  0  0  0  0  0  0  0
    5.1725    0.0119   -0.0000 C   0  0  0  0  0  0  0  0  0  0  0  0
    3.8585    2.2816   -0.0000 C   0  0  0  0  0  0  0  0  0  0  0  0
    3.8585   -2.2219   -0.0000 C   0  0  0  0  0  0  0  0  0  0  0  0
    5.1606   -1.4574   -0.0000 C   0  0  0  0  0  0  0  0  0  0  0  0
    6.4507   -2.1861   -0.0000 C   0  0  0  0  0  0  0  0  0  0  0  0
    7.7408   -1.4215   -0.0000 C   0  0  0  0  0  0  0  0  0  0  0  0
    7.7289    0.0956   -0.0000 C   0  0  0  0  0  0  0  0  0  0  0  0
    9.0310   -2.1741   -0.0000 C   0  0  0  0  0  0  0  0  0  0  0  0
    9.0310    0.8481   -0.0000 C   0  0  0  0  0  0  0  0  0  0  0  0
    6.4387    0.8720   -0.0000 C   0  0  0  0  0  0  0  0  0  0  0  0
   10.3211   -1.4335   -0.0000 C   0  0  0  0  0  0  0  0  0  0  0  0
   10.0822   -3.2253   -0.0000 C   0  0  0  0  0  0  0  0  0  0  0  0
    7.9439   -3.2253   -0.0000 C   0  0  0  0  0  0  0  0  0  0  0  0
   10.3211    0.0956   -0.0000 C   0  0  0  0  0  0  0  0  0  0  0  0
   11.6232    0.8481   -0.0000 C   0  0  0  0  0  0  0  0  0  0  0  0
  1  2  2  0  0  0  0
  2  3  1  0  0  0  0
  2  4  1  0  0  0  0
  4  5  2  0  0  0  0
  4  6  1  0  0  0  0
  5  7  1  0  0  0  0
  5  8  1  0  0  0  0
  6  9  2  0  0  0  0
  7 10  2  0  0  0  0
 10 11  1  0  0  0  0
 11 12  1  0  0  0  0
 12 13  1  0  0  0  0
 12 14  1  0  0  0  0
 13 15  1  0  0  0  0
 13 16  2  0  0  0  0
 14 17  1  0  0  0  0
 14 18  1  0  0  0  0
 14 19  1  0  0  0  0
 15 20  2  0  0  0  0
 20 21  1  0  0  0  0
  9 10  1  0  0  0  0
 17 20  1  0  0  0  0
M  CHG  2   2   1   3  -1
M  END
>  <MolRegNo>
77353

>  <m>
=

>  <Value>
2698

>  <Unit>
nM

>  <Type>
Ki

>  <pValue>
5.57

>  <Ligand Efficiency>
0.36

>  <Binding Efficiency>
19.51

>  <Surface Efficiency>
12.91

>  <Assay Index>
36069

>  <Assay Category>


>  <Assay Organism>


>  <Target ID>
56

>  <Target Name>
Androgen Receptor

>  <Target Organism>
Homo sapiens

>  <Target Description>
Target is a single protein chain

>  <Sequence Accession>
P10275

>  <Reference>
J Med Chem 39 (9), 1778-1789 (1996)

>  <Pubmed ID>
8627601

>  <DOI>
10.1021/jm950747d

$$$$
77996
Actelion Java MolfileCreator 1.0

 29 31  0  0  1  0  0  0  0  0999 V2000
    0.0000   -0.0000   -0.0000 O   0  0  0  0  0  0  0  0  0  0  0  0
    1.2990    0.7994   -0.0000 C   0  0  0  0  0  0  0  0  0  0  0  0
    1.2790    2.2782   -0.0000 C   0  0  0  0  0  0  0  0  0  0  0  0
    2.5380    0.0999   -0.0000 C   0  0  0  0  0  0  0  0  0  0  0  0
    2.5180    3.0176   -0.0000 C   0  0  0  0  0  0  0  0  0  0  0  0
    3.7770    0.8393   -0.0000 C   0  0  0  0  0  0  0  0  0  0  0  0
    3.7571    2.3182   -0.0000 C   0  0  0  0  0  0  0  0  0  0  0  0
    2.4980    4.4965   -0.0000 C   0  0  0  0  0  0  0  0  0  0  0  0
    4.9961    3.0576   -0.0000 C   0  0  0  0  0  0  0  0  0  0  0  0
    3.7371    5.2559   -0.0000 C   0  0  0  0  0  0  0  0  0  0  0  0
    3.7171    6.7347   -0.0000 C   0  0  0  0  0  0  0  0  0  0  0  0
    4.9561    7.4742   -0.0000 C   0  0  0  0  0  0  0  0  0  0  0  0
    2.4381    7.4742   -0.0000 C   0  0  0  0  0  0  0  0  0  0  0  0
    4.9361    8.9730   -0.0000 C   0  0  0  0  0  0  0  0  0  0  0  0
    7.4742    7.4941   -0.0000 C   0  0  0  0  0  0  0  0  0  0  0  0
    2.4181    8.9730   -0.0000 C   0  0  0  0  0  0  0  0  0  0  0  0
    6.1952    9.7324   -0.0000 C   0  0  0  0  0  0  0  0  0  0  0  0
    3.6571    9.7324   -0.0000 C   0  0  0  0  0  0  0  0  0  0  0  0
    4.9162   10.4718   -0.0000 C   0  0  0  0  0  0  0  0  0  0  0  0
    7.4542    8.9930   -0.0000 C   0  0  0  0  0  0  0  0  0  0  0  0
    6.1752   11.2312   -0.0000 C   0  0  0  0  0  0  0  0  0  0  0  0
    7.4142   11.9706   -0.0000 C   0  0  0  0  0  0  0  0  0  0  0  0
    4.8762   11.9706   -0.0000 C   0  0  0  0  0  0  0  0  0  0  0  0
    8.6532   11.2712   -0.0000 C   0  0  0  0  0  0  0  0  0  0  0  0
    9.8723   12.0106   -0.0000 C   0  0  0  0  0  0  0  0  0  0  0  0
   11.1313   11.3112   -0.0000 C   0  0  0  0  0  0  0  0  0  0  0  0
    9.8723   13.5094   -0.0000 C   0  0  0  0  0  0  0  0  0  0  0  0
   11.1313    9.8523   -0.0000 C   0  0  0  0  0  0  0  0  0  0  0  0
   12.3703   12.0506   -0.0000 C   0  0  0  0  0  0  0  0  0  0  0  0
  2  1  1  6  0  0  0
  2  3  1  0  0  0  0
  2  4  1  0  0  0  0
  3  5  1  0  0  0  0
  4  6  1  0  0  0  0
  5  7  1  0  0  0  0
  5  8  2  0  0  0  0
  7  9  2  0  0  0  0
  8 10  1  0  0  0  0
 10 11  2  0  0  0  0
 11 12  1  0  0  0  0
 11 13  1  0  0  0  0
 12 14  1  0  0  0  0
 12 15  1  0  0  0  0
 13 16  1  0  0  0  0
 14 17  1  0  0  0  0
 14 18  1  0  0  0  0
 14 19  1  0  0  0  0
 15 20  1  0  0  0  0
 17 21  1  0  0  0  0
 21 22  1  0  0  0  0
 21 23  1  0  0  0  0
 22 24  2  0  0  0  0
 24 25  1  0  0  0  0
 25 26  1  0  0  0  0
 25 27  1  0  0  0  0
 26 28  1  0  0  0  0
 26 29  1  0  0  0  0
  6  7  1  0  0  0  0
 16 18  1  0  0  0  0
 17 20  1  0  0  0  0
M  END
>  <MolRegNo>
77996

>  <m>
=

>  <Value>
1.1

>  <Unit>
nM

>  <Type>
Ki

>  <pValue>
8.96

>  <Ligand Efficiency>
0.42

>  <Binding Efficiency>
22.59

>  <Surface Efficiency>
44.28

>  <Assay Index>
36071

>  <Assay Category>


>  <Assay Organism>
Homo sapiens

>  <Target ID>
56

>  <Target Name>
Androgen Receptor

>  <Target Organism>
Homo sapiens

>  <Target Description>
Target is a single protein chain

>  <Sequence Accession>
P10275

>  <Reference>
J Med Chem 39 (9), 1778-1789 (1996)

>  <Pubmed ID>
8627601

>  <DOI>
10.1021/jm950747d

$$$$
77209
Actelion Java MolfileCreator 1.0

 20 21  0  0  0  0  0  0  0  0999 V2000
    0.0000   -0.0000   -0.0000 Br  0  0  0  0  0  0  0  0  0  0  0  0
    1.2877   -0.7392   -0.0000 C   0  0  0  0  0  0  0  0  0  0  0  0
    2.5753    0.0238   -0.0000 C   0  0  0  0  0  0  0  0  0  0  0  0
    1.2757   -2.2415   -0.0000 C   0  0  0  0  0  0  0  0  0  0  0  0
    2.5634    1.5381   -0.0000 O   0  0  0  0  0  0  0  0  0  0  0  0
    3.8749   -0.7273   -0.0000 C   0  0  0  0  0  0  0  0  0  0  0  0
    2.5634   -2.9807   -0.0000 C   0  0  0  0  0  0  0  0  0  0  0  0
    3.8511    2.3011   -0.0000 C   0  0  0  0  0  0  0  0  0  0  0  0
    3.8630   -2.2057   -0.0000 C   0  0  0  0  0  0  0  0  0  0  0  0
    2.5515   -4.4711   -0.0000 O   0  0  0  0  0  0  0  0  0  0  0  0
    5.1626   -2.9450   -0.0000 C   0  0  0  0  0  0  0  0  0  0  0  0
    6.4503   -2.1700   -0.0000 C   0  0  0  0  0  0  0  0  0  0  0  0
    6.4145   -0.6558   -0.0000 C   0  0  0  0  0  0  0  0  0  0  0  0
    7.7379   -2.9211   -0.0000 C   0  0  0  0  0  0  0  0  0  0  0  0
    7.7260    0.1073   -0.0000 C   0  0  0  0  0  0  0  0  0  0  0  0
    5.1030    0.1073   -0.0000 C   0  0  0  0  0  0  0  0  0  0  0  0
    9.0137   -2.1580   -0.0000 C   0  0  0  0  0  0  0  0  0  0  0  0
    6.6410   -3.9703   -0.0000 C   0  0  0  0  0  0  0  0  0  0  0  0
    8.7872   -3.9703   -0.0000 C   0  0  0  0  0  0  0  0  0  0  0  0
    9.0137   -0.6319   -0.0000 C   0  0  0  0  0  0  0  0  0  0  0  0
  1  2  1  0  0  0  0
  2  3  2  0  0  0  0
  2  4  1  0  0  0  0
  3  5  1  0  0  0  0
  3  6  1  0  0  0  0
  4  7  2  0  0  0  0
  5  8  1  0  0  0  0
  6  9  2  0  0  0  0
  7 10  1  0  0  0  0
  9 11  1  0  0  0  0
 11 12  1  0  0  0  0
 12 13  1  0  0  0  0
 12 14  1  0  0  0  0
 13 15  1  0  0  0  0
 13 16  2  0  0  0  0
 14 17  1  0  0  0  0
 14 18  1  0  0  0  0
 14 19  1  0  0  0  0
 15 20  2  0  0  0  0
  7  9  1  0  0  0  0
 17 20  1  0  0  0  0
M  END
>  <MolRegNo>
77209

>  <m>
=

>  <Value>
1518

>  <Unit>
nM

>  <Type>
Ki

>  <pValue>
5.82

>  <Ligand Efficiency>
0.4

>  <Binding Efficiency>
17.25

>  <Surface Efficiency>
19.75

>  <Assay Index>
36069

>  <Assay Category>


>  <Assay Organism>


>  <Target ID>
56

>  <Target Name>
Androgen Receptor

>  <Target Organism>
Homo sapiens

>  <Target Description>
Target is a single protein chain

>  <Sequence Accession>
P10275

>  <Reference>
J Med Chem 39 (9), 1778-1789 (1996)

>  <Pubmed ID>
8627601

>  <DOI>
10.1021/jm950747d

$$$$
77210
Actelion Java MolfileCreator 1.0

 21 22  0  0  0  0  0  0  0  0999 V2000
    0.0000   -0.0000   -0.0000 Br  0  0  0  0  0  0  0  0  0  0  0  0
    0.0000   -1.4953   -0.0000 C   0  0  0  0  0  0  0  0  0  0  0  0
    1.3039   -2.2250   -0.0000 C   0  0  0  0  0  0  0  0  0  0  0  0
   -1.3039   -2.2369   -0.0000 C   0  0  0  0  0  0  0  0  0  0  0  0
    2.5958   -1.4474   -0.0000 O   0  0  0  0  0  0  0  0  0  0  0  0
    1.2919   -3.7322   -0.0000 C   0  0  0  0  0  0  0  0  0  0  0  0
   -1.3158   -3.7322   -0.0000 C   0  0  0  0  0  0  0  0  0  0  0  0
    3.8877   -2.1771   -0.0000 C   0  0  0  0  0  0  0  0  0  0  0  0
   -0.0359   -4.4739   -0.0000 C   0  0  0  0  0  0  0  0  0  0  0  0
   -2.6317   -4.4739   -0.0000 O   0  0  0  0  0  0  0  0  0  0  0  0
   -0.0478   -5.9691   -0.0000 C   0  0  0  0  0  0  0  0  0  0  0  0
    1.2441   -6.7108   -0.0000 C   0  0  0  0  0  0  0  0  0  0  0  0
    2.5360   -5.9333   -0.0000 C   0  0  0  0  0  0  0  0  0  0  0  0
    1.2201   -8.2061   -0.0000 C   0  0  0  0  0  0  0  0  0  0  0  0
    2.5240   -4.4141   -0.0000 C   0  0  0  0  0  0  0  0  0  0  0  0
    3.8279   -6.6869   -0.0000 C   0  0  0  0  0  0  0  0  0  0  0  0
    2.5001   -8.9477   -0.0000 C   0  0  0  0  0  0  0  0  0  0  0  0
   -0.0957   -7.4405   -0.0000 C   0  0  0  0  0  0  0  0  0  0  0  0
    0.4426   -9.4860   -0.0000 C   0  0  0  0  0  0  0  0  0  0  0  0
    3.8040   -8.1821   -0.0000 C   0  0  0  0  0  0  0  0  0  0  0  0
    5.0959   -8.9358   -0.0000 C   0  0  0  0  0  0  0  0  0  0  0  0
  1  2  1  0  0  0  0
  2  3  2  0  0  0  0
  2  4  1  0  0  0  0
  3  5  1  0  0  0  0
  3  6  1  0  0  0  0
  4  7  2  0  0  0  0
  5  8  1  0  0  0  0
  6  9  2  0  0  0  0
  7 10  1  0  0  0  0
  9 11  1  0  0  0  0
 12 11  1  6  0  0  0
 12 13  1  0  0  0  0
 12 14  1  0  0  0  0
 13 15  2  0  0  0  0
 13 16  1  0  0  0  0
 14 17  1  0  0  0  0
 14 18  1  0  0  0  0
 14 19  1  0  0  0  0
 16 20  1  0  0  0  0
 20 21  1  6  0  0  0
  7  9  1  0  0  0  0
 17 20  1  0  0  0  0
M  END
>  <MolRegNo>
77210

>  <m>
=

>  <Value>
696

>  <Unit>
nM

>  <Type>
Ki

>  <pValue>
6.16

>  <Ligand Efficiency>
0.4

>  <Binding Efficiency>
17.43

>  <Surface Efficiency>
20.9

>  <Assay Index>
36069

>  <Assay Category>


>  <Assay Organism>


>  <Target ID>
56

>  <Target Name>
Androgen Receptor

>  <Target Organism>
Homo sapiens

>  <Target Description>
Target is a single protein chain

>  <Sequence Accession>
P10275

>  <Reference>
J Med Chem 39 (9), 1778-1789 (1996)

>  <Pubmed ID>
8627601

>  <DOI>
10.1021/jm950747d

$$$$
77670
Actelion Java MolfileCreator 1.0

 19 20  0  0  1  0  0  0  0  0999 V2000
    0.0000   -0.0000   -0.0000 Br  0  0  0  0  0  0  0  0  0  0  0  0
    1.2919   -0.7467   -0.0000 C   0  0  0  0  0  0  0  0  0  0  0  0
    2.5839    0.0119   -0.0000 C   0  0  0  0  0  0  0  0  0  0  0  0
    1.2801   -2.2401   -0.0000 C   0  0  0  0  0  0  0  0  0  0  0  0
    2.5720    1.5290   -0.0000 O   0  0  0  0  0  0  0  0  0  0  0  0
    3.8877   -0.7349   -0.0000 C   0  0  0  0  0  0  0  0  0  0  0  0
    2.5720   -2.9750   -0.0000 C   0  0  0  0  0  0  0  0  0  0  0  0
    3.8758    2.2876   -0.0000 C   0  0  0  0  0  0  0  0  0  0  0  0
    3.8758   -2.2164   -0.0000 C   0  0  0  0  0  0  0  0  0  0  0  0
    2.5602   -4.4684   -0.0000 O   0  0  0  0  0  0  0  0  0  0  0  0
    5.1677   -2.9394   -0.0000 C   0  0  0  0  0  0  0  0  0  0  0  0
    6.4597   -2.1809   -0.0000 C   0  0  0  0  0  0  0  0  0  0  0  0
    6.4478   -0.6637   -0.0000 C   0  0  0  0  0  0  0  0  0  0  0  0
    7.7516   -2.9394   -0.0000 C   0  0  0  0  0  0  0  0  0  0  0  0
    5.1559    0.1067   -0.0000 C   0  0  0  0  0  0  0  0  0  0  0  0
    7.7635    0.0830   -0.0000 C   0  0  0  0  0  0  0  0  0  0  0  0
    9.0435   -2.1927   -0.0000 C   0  0  0  0  0  0  0  0  0  0  0  0
    7.7160   -4.4329   -0.0000 C   0  0  0  0  0  0  0  0  0  0  0  0
    9.0554   -0.6637   -0.0000 C   0  0  0  0  0  0  0  0  0  0  0  0
  1  2  1  0  0  0  0
  2  3  2  0  0  0  0
  2  4  1  0  0  0  0
  3  5  1  0  0  0  0
  3  6  1  0  0  0  0
  4  7  2  0  0  0  0
  5  8  1  0  0  0  0
  6  9  2  0  0  0  0
  7 10  1  0  0  0  0
  9 11  1  0  0  0  0
 12 11  1  1  0  0  0
 12 13  1  0  0  0  0
 12 14  1  0  0  0  0
 13 15  2  0  0  0  0
 13 16  1  0  0  0  0
 14 17  1  0  0  0  0
 14 18  1  6  0  0  0
 16 19  1  0  0  0  0
  7  9  1  0  0  0  0
 17 19  1  0  0  0  0
M  END
>  <MolRegNo>
77670

>  <m>
=

>  <Value>
1644

>  <Unit>
nM

>  <Type>
Ki

>  <pValue>
5.78

>  <Ligand Efficiency>
0.42

>  <Binding Efficiency>
17.78

>  <Surface Efficiency>
19.63

>  <Assay Index>
36069

>  <Assay Category>


>  <Assay Organism>


>  <Target ID>
56

>  <Target Name>
Androgen Receptor

>  <Target Organism>
Homo sapiens

>  <Target Description>
Target is a single protein chain

>  <Sequence Accession>
P10275

>  <Reference>
J Med Chem 39 (9), 1778-1789 (1996)

>  <Pubmed ID>
8627601

>  <DOI>
10.1021/jm950747d

$$$$
77407
Actelion Java MolfileCreator 1.0

 23 24  0  0  0  0  0  0  0  0999 V2000
    0.0000   -0.0000   -0.0000 Br  0  0  0  0  0  0  0  0  0  0  0  0
    1.2873   -0.7390   -0.0000 C   0  0  0  0  0  0  0  0  0  0  0  0
    2.5746    0.0238   -0.0000 C   0  0  0  0  0  0  0  0  0  0  0  0
    1.2754   -2.2409   -0.0000 C   0  0  0  0  0  0  0  0  0  0  0  0
    2.5627    1.5376   -0.0000 O   0  0  0  0  0  0  0  0  0  0  0  0
    3.8738   -0.7271   -0.0000 C   0  0  0  0  0  0  0  0  0  0  0  0
    2.5627   -2.9799   -0.0000 C   0  0  0  0  0  0  0  0  0  0  0  0
    3.8500    2.3005   -0.0000 C   0  0  0  0  0  0  0  0  0  0  0  0
    3.8619   -2.2051   -0.0000 C   0  0  0  0  0  0  0  0  0  0  0  0
    2.5508   -4.4698   -0.0000 O   0  0  0  0  0  0  0  0  0  0  0  0
    5.1611   -2.9441   -0.0000 C   0  0  0  0  0  0  0  0  0  0  0  0
    6.4484   -2.1693   -0.0000 C   0  0  0  0  0  0  0  0  0  0  0  0
    7.7357   -2.9083   -0.0000 C   0  0  0  0  0  0  0  0  0  0  0  0
    9.0230   -2.1455   -0.0000 C   0  0  0  0  0  0  0  0  0  0  0  0
    9.0230   -0.6317   -0.0000 C   0  0  0  0  0  0  0  0  0  0  0  0
   10.3103   -2.8964   -0.0000 C   0  0  0  0  0  0  0  0  0  0  0  0
   10.3342    0.1311   -0.0000 C   0  0  0  0  0  0  0  0  0  0  0  0
    7.7238    0.1430   -0.0000 C   0  0  0  0  0  0  0  0  0  0  0  0
   11.6095   -2.1574   -0.0000 C   0  0  0  0  0  0  0  0  0  0  0  0
   11.3712   -3.9453   -0.0000 C   0  0  0  0  0  0  0  0  0  0  0  0
    9.2257   -3.9453   -0.0000 C   0  0  0  0  0  0  0  0  0  0  0  0
   11.6215   -0.6198   -0.0000 C   0  0  0  0  0  0  0  0  0  0  0  0
   12.9207    0.1430   -0.0000 C   0  0  0  0  0  0  0  0  0  0  0  0
  1  2  1  0  0  0  0
  2  3  2  0  0  0  0
  2  4  1  0  0  0  0
  3  5  1  0  0  0  0
  3  6  1  0  0  0  0
  4  7  2  0  0  0  0
  5  8  1  0  0  0  0
  6  9  2  0  0  0  0
  7 10  1  0  0  0  0
  9 11  1  0  0  0  0
 11 12  2  0  0  0  0
 12 13  1  0  0  0  0
 13 14  1  0  0  0  0
 14 15  1  0  0  0  0
 14 16  1  0  0  0  0
 15 17  1  0  0  0  0
 15 18  2  0  0  0  0
 16 19  1  0  0  0  0
 16 20  1  0  0  0  0
 16 21  1  0  0  0  0
 17 22  2  0  0  0  0
 22 23  1  0  0  0  0
  7  9  1  0  0  0  0
 19 22  1  0  0  0  0
M  END
>  <MolRegNo>
77407

>  <m>
=

>  <Value>
2318

>  <Unit>
nM

>  <Type>
Ki

>  <pValue>
5.63

>  <Ligand Efficiency>
0.33

>  <Binding Efficiency>
14.93

>  <Surface Efficiency>
19.13

>  <Assay Index>
36069

>  <Assay Category>


>  <Assay Organism>


>  <Target ID>
56

>  <Target Name>
Androgen Receptor

>  <Target Organism>
Homo sapiens

>  <Target Description>
Target is a single protein chain

>  <Sequence Accession>
P10275

>  <Reference>
J Med Chem 39 (9), 1778-1789 (1996)

>  <Pubmed ID>
8627601

>  <DOI>
10.1021/jm950747d

$$$$
77691
Actelion Java MolfileCreator 1.0

 23 24  0  0  1  0  0  0  0  0999 V2000
    0.0000   -0.0000   -0.0000 Br  0  0  0  0  0  0  0  0  0  0  0  0
    1.2905   -0.7341   -0.0000 C   0  0  0  0  0  0  0  0  0  0  0  0
    2.5811    0.0237   -0.0000 C   0  0  0  0  0  0  0  0  0  0  0  0
    1.2787   -2.2259   -0.0000 C   0  0  0  0  0  0  0  0  0  0  0  0
    2.5692    1.5392   -0.0000 O   0  0  0  0  0  0  0  0  0  0  0  0
    3.8953   -0.7341   -0.0000 C   0  0  0  0  0  0  0  0  0  0  0  0
    2.5692   -2.9599   -0.0000 C   0  0  0  0  0  0  0  0  0  0  0  0
    3.8834    2.2851   -0.0000 C   0  0  0  0  0  0  0  0  0  0  0  0
    3.8834   -2.2022   -0.0000 C   0  0  0  0  0  0  0  0  0  0  0  0
    2.5574   -4.4518   -0.0000 O   0  0  0  0  0  0  0  0  0  0  0  0
    5.1740   -2.9363   -0.0000 C   0  0  0  0  0  0  0  0  0  0  0  0
    1.2432   -5.1858   -0.0000 C   0  0  0  0  0  0  0  0  0  0  0  0
    6.4645   -2.1785   -0.0000 C   0  0  0  0  0  0  0  0  0  0  0  0
   -0.0710   -4.4281   -0.0000 O   0  0  0  0  0  0  0  0  0  0  0  0
    1.2313   -6.6776   -0.0000 C   0  0  0  0  0  0  0  0  0  0  0  0
    6.4527   -0.6630   -0.0000 C   0  0  0  0  0  0  0  0  0  0  0  0
    7.7550   -2.9126   -0.0000 C   0  0  0  0  0  0  0  0  0  0  0  0
    7.7669    0.0947   -0.0000 C   0  0  0  0  0  0  0  0  0  0  0  0
    5.1621    0.1184   -0.0000 C   0  0  0  0  0  0  0  0  0  0  0  0
    9.0456   -2.1667   -0.0000 C   0  0  0  0  0  0  0  0  0  0  0  0
    7.7195   -4.4044   -0.0000 C   0  0  0  0  0  0  0  0  0  0  0  0
    9.0574   -0.6630   -0.0000 C   0  0  0  0  0  0  0  0  0  0  0  0
   10.3716    0.0947   -0.0000 C   0  0  0  0  0  0  0  0  0  0  0  0
  1  2  1  0  0  0  0
  2  3  2  0  0  0  0
  2  4  1  0  0  0  0
  3  5  1  0  0  0  0
  3  6  1  0  0  0  0
  4  7  2  0  0  0  0
  5  8  1  0  0  0  0
  6  9  2  0  0  0  0
  7 10  1  0  0  0  0
  9 11  1  0  0  0  0
 10 12  1  0  0  0  0
 13 11  1  6  0  0  0
 12 14  2  0  0  0  0
 12 15  1  0  0  0  0
 13 16  1  0  0  0  0
 13 17  1  0  0  0  0
 16 18  1  0  0  0  0
 16 19  2  0  0  0  0
 17 20  1  0  0  0  0
 17 21  1  1  0  0  0
 18 22  2  0  0  0  0
 22 23  1  0  0  0  0
  7  9  1  0  0  0  0
 20 22  1  0  0  0  0
M  END
>  <MolRegNo>
77691

>  <m>
=

>  <Value>
1497

>  <Unit>
nM

>  <Type>
Ki

>  <pValue>
5.83

>  <Ligand Efficiency>
0.35

>  <Binding Efficiency>
15.36

>  <Surface Efficiency>
16.39

>  <Assay Index>
36069

>  <Assay Category>


>  <Assay Organism>


>  <Target ID>
56

>  <Target Name>
Androgen Receptor

>  <Target Organism>
Homo sapiens

>  <Target Description>
Target is a single protein chain

>  <Sequence Accession>
P10275

>  <Reference>
J Med Chem 39 (9), 1778-1789 (1996)

>  <Pubmed ID>
8627601

>  <DOI>
10.1021/jm950747d

$$$$
77443
Actelion Java MolfileCreator 1.0

 25 27  0  0  0  0  0  0  0  0999 V2000
    0.0000   -0.0000   -0.0000 Br  0  0  0  0  0  0  0  0  0  0  0  0
    1.2885   -0.7278   -0.0000 C   0  0  0  0  0  0  0  0  0  0  0  0
    2.5771    0.0239   -0.0000 C   0  0  0  0  0  0  0  0  0  0  0  0
    1.2766   -2.2311   -0.0000 C   0  0  0  0  0  0  0  0  0  0  0  0
    2.5651    1.5391   -0.0000 O   0  0  0  0  0  0  0  0  0  0  0  0
    3.8775   -0.7278   -0.0000 C   0  0  0  0  0  0  0  0  0  0  0  0
    2.5651   -2.9708   -0.0000 C   0  0  0  0  0  0  0  0  0  0  0  0
    3.8537    2.3027   -0.0000 C   0  0  0  0  0  0  0  0  0  0  0  0
    3.8656   -2.2072   -0.0000 C   0  0  0  0  0  0  0  0  0  0  0  0
    2.5532   -4.4621   -0.0000 O   0  0  0  0  0  0  0  0  0  0  0  0
    5.1541   -2.9469   -0.0000 C   0  0  0  0  0  0  0  0  0  0  0  0
    1.2408   -5.2019   -0.0000 C   0  0  0  0  0  0  0  0  0  0  0  0
    6.4427   -2.1595   -0.0000 C   0  0  0  0  0  0  0  0  0  0  0  0
   -0.0716   -4.4383   -0.0000 O   0  0  0  0  0  0  0  0  0  0  0  0
    1.2289   -6.6932   -0.0000 C   0  0  0  0  0  0  0  0  0  0  0  0
    7.7312   -2.9231   -0.0000 C   0  0  0  0  0  0  0  0  0  0  0  0
    6.4307   -0.6443   -0.0000 C   0  0  0  0  0  0  0  0  0  0  0  0
    9.0197   -2.1714   -0.0000 C   0  0  0  0  0  0  0  0  0  0  0  0
    8.7931   -3.9611   -0.0000 C   0  0  0  0  0  0  0  0  0  0  0  0
    6.6455   -3.9611   -0.0000 C   0  0  0  0  0  0  0  0  0  0  0  0
    7.7312    0.0954   -0.0000 C   0  0  0  0  0  0  0  0  0  0  0  0
    5.6910    0.6681   -0.0000 C   0  0  0  0  0  0  0  0  0  0  0  0
    4.9155   -0.6204   -0.0000 C   0  0  0  0  0  0  0  0  0  0  0  0
    9.0317   -0.6562   -0.0000 C   0  0  0  0  0  0  0  0  0  0  0  0
   10.3321    0.0954   -0.0000 C   0  0  0  0  0  0  0  0  0  0  0  0
  1  2  1  0  0  0  0
  2  3  2  0  0  0  0
  2  4  1  0  0  0  0
  3  5  1  0  0  0  0
  3  6  1  0  0  0  0
  4  7  2  0  0  0  0
  5  8  1  0  0  0  0
  6  9  2  0  0  0  0
  7 10  1  0  0  0  0
  9 11  1  0  0  0  0
 10 12  1  0  0  0  0
 11 13  1  0  0  0  0
 12 14  2  0  0  0  0
 12 15  1  0  0  0  0
 13 16  1  0  0  0  0
 13 17  1  0  0  0  0
 16 18  1  0  0  0  0
 16 19  1  0  0  0  0
 16 20  1  0  0  0  0
 17 21  1  0  0  0  0
 17 22  1  0  0  0  0
 17 23  1  0  0  0  0
 18 24  1  0  0  0  0
 24 25  1  0  0  0  0
  7  9  1  0  0  0  0
 21 24  2  0  0  0  0
 22 23  1  0  0  0  0
M  END
>  <MolRegNo>
77443

>  <m>
=

>  <Value>
3008

>  <Unit>
nM

>  <Type>
Ki

>  <pValue>
5.52

>  <Ligand Efficiency>
0.3

>  <Binding Efficiency>
13.56

>  <Surface Efficiency>
15.54

>  <Assay Index>
36069

>  <Assay Category>


>  <Assay Organism>


>  <Target ID>
56

>  <Target Name>
Androgen Receptor

>  <Target Organism>
Homo sapiens

>  <Target Description>
Target is a single protein chain

>  <Sequence Accession>
P10275

>  <Reference>
J Med Chem 39 (9), 1778-1789 (1996)

>  <Pubmed ID>
8627601

>  <DOI>
10.1021/jm950747d

$$$$
77719
Actelion Java MolfileCreator 1.0

 22 23  0  0  1  0  0  0  0  0999 V2000
    0.0000   -0.0000   -0.0000 Br  0  0  0  0  0  0  0  0  0  0  0  0
    1.2917   -0.7466   -0.0000 C   0  0  0  0  0  0  0  0  0  0  0  0
    2.5835    0.0119   -0.0000 C   0  0  0  0  0  0  0  0  0  0  0  0
    1.2799   -2.2398   -0.0000 C   0  0  0  0  0  0  0  0  0  0  0  0
    2.5716    1.5287   -0.0000 O   0  0  0  0  0  0  0  0  0  0  0  0
    3.8752   -0.7347   -0.0000 C   0  0  0  0  0  0  0  0  0  0  0  0
    2.5716   -2.9745   -0.0000 C   0  0  0  0  0  0  0  0  0  0  0  0
    3.8633    2.2872   -0.0000 C   0  0  0  0  0  0  0  0  0  0  0  0
    3.8633   -2.2161   -0.0000 C   0  0  0  0  0  0  0  0  0  0  0  0
    2.5598   -4.4677   -0.0000 O   0  0  0  0  0  0  0  0  0  0  0  0
    5.1669   -2.9390   -0.0000 C   0  0  0  0  0  0  0  0  0  0  0  0
    6.4586   -2.1805   -0.0000 C   0  0  0  0  0  0  0  0  0  0  0  0
    6.4468   -0.6636   -0.0000 C   0  0  0  0  0  0  0  0  0  0  0  0
    7.7504   -2.9390   -0.0000 C   0  0  0  0  0  0  0  0  0  0  0  0
    5.1432    0.1067   -0.0000 C   0  0  0  0  0  0  0  0  0  0  0  0
    7.7622    0.0830   -0.0000 C   0  0  0  0  0  0  0  0  0  0  0  0
    9.0421   -2.1924   -0.0000 C   0  0  0  0  0  0  0  0  0  0  0  0
    8.7932   -3.9818   -0.0000 C   0  0  0  0  0  0  0  0  0  0  0  0
    6.6720   -3.9818   -0.0000 C   0  0  0  0  0  0  0  0  0  0  0  0
    8.8169    1.1614   -0.0000 O   0  0  0  0  0  0  0  0  0  0  0  0
    9.0540   -0.6636   -0.0000 C   0  0  0  0  0  0  0  0  0  0  0  0
    6.6838    1.1614   -0.0000 C   0  0  0  0  0  0  0  0  0  0  0  0
  1  2  1  0  0  0  0
  2  3  2  0  0  0  0
  2  4  1  0  0  0  0
  3  5  1  0  0  0  0
  3  6  1  0  0  0  0
  4  7  2  0  0  0  0
  5  8  1  0  0  0  0
  6  9  2  0  0  0  0
  7 10  1  0  0  0  0
  9 11  1  0  0  0  0
 12 11  1  6  0  0  0
 12 13  1  0  0  0  0
 12 14  1  0  0  0  0
 13 15  2  0  0  0  0
 13 16  1  0  0  0  0
 14 17  1  0  0  0  0
 14 18  1  0  0  0  0
 14 19  1  0  0  0  0
 16 20  1  6  0  0  0
 16 21  1  0  0  0  0
 16 22  1  0  0  0  0
  7  9  1  0  0  0  0
 17 21  1  0  0  0  0
M  END
>  <MolRegNo>
77719

>  <m>
=

>  <Value>
6662

>  <Unit>
nM

>  <Type>
Ki

>  <pValue>
5.18

>  <Ligand Efficiency>
0.32

>  <Binding Efficiency>
14.02

>  <Surface Efficiency>
10.42

>  <Assay Index>
36069

>  <Assay Category>


>  <Assay Organism>


>  <Target ID>
56

>  <Target Name>
Androgen Receptor

>  <Target Organism>
Homo sapiens

>  <Target Description>
Target is a single protein chain

>  <Sequence Accession>
P10275

>  <Reference>
J Med Chem 39 (9), 1778-1789 (1996)

>  <Pubmed ID>
8627601

>  <DOI>
10.1021/jm950747d

$$$$
77669
Actelion Java MolfileCreator 1.0

 19 20  0  0  1  0  0  0  0  0999 V2000
    0.0000   -0.0000   -0.0000 Br  0  0  0  0  0  0  0  0  0  0  0  0
    1.2919   -0.7467   -0.0000 C   0  0  0  0  0  0  0  0  0  0  0  0
    2.5839    0.0119   -0.0000 C   0  0  0  0  0  0  0  0  0  0  0  0
    1.2801   -2.2401   -0.0000 C   0  0  0  0  0  0  0  0  0  0  0  0
    2.5720    1.5290   -0.0000 O   0  0  0  0  0  0  0  0  0  0  0  0
    3.8877   -0.7349   -0.0000 C   0  0  0  0  0  0  0  0  0  0  0  0
    2.5720   -2.9750   -0.0000 C   0  0  0  0  0  0  0  0  0  0  0  0
    3.8758    2.2876   -0.0000 C   0  0  0  0  0  0  0  0  0  0  0  0
    3.8758   -2.2164   -0.0000 C   0  0  0  0  0  0  0  0  0  0  0  0
    2.5602   -4.4684   -0.0000 O   0  0  0  0  0  0  0  0  0  0  0  0
    5.1677   -2.9394   -0.0000 C   0  0  0  0  0  0  0  0  0  0  0  0
    6.4597   -2.1809   -0.0000 C   0  0  0  0  0  0  0  0  0  0  0  0
    6.4478   -0.6637   -0.0000 C   0  0  0  0  0  0  0  0  0  0  0  0
    7.7516   -2.9394   -0.0000 C   0  0  0  0  0  0  0  0  0  0  0  0
    5.1559    0.1067   -0.0000 C   0  0  0  0  0  0  0  0  0  0  0  0
    7.7635    0.0830   -0.0000 C   0  0  0  0  0  0  0  0  0  0  0  0
    9.0435   -2.1927   -0.0000 C   0  0  0  0  0  0  0  0  0  0  0  0
    7.7160   -4.4329   -0.0000 C   0  0  0  0  0  0  0  0  0  0  0  0
    9.0554   -0.6637   -0.0000 C   0  0  0  0  0  0  0  0  0  0  0  0
  1  2  1  0  0  0  0
  2  3  2  0  0  0  0
  2  4  1  0  0  0  0
  3  5  1  0  0  0  0
  3  6  1  0  0  0  0
  4  7  2  0  0  0  0
  5  8  1  0  0  0  0
  6  9  2  0  0  0  0
  7 10  1  0  0  0  0
  9 11  1  0  0  0  0
 12 11  1  6  0  0  0
 12 13  1  0  0  0  0
 12 14  1  0  0  0  0
 13 15  2  0  0  0  0
 13 16  1  0  0  0  0
 14 17  1  0  0  0  0
 14 18  1  1  0  0  0
 16 19  1  0  0  0  0
  7  9  1  0  0  0  0
 17 19  1  0  0  0  0
M  END
>  <MolRegNo>
77669

>  <m>
=

>  <Value>
570

>  <Unit>
nM

>  <Type>
Ki

>  <pValue>
6.24

>  <Ligand Efficiency>
0.45

>  <Binding Efficiency>
19.2

>  <Surface Efficiency>
21.2

>  <Assay Index>
36069

>  <Assay Category>


>  <Assay Organism>


>  <Target ID>
56

>  <Target Name>
Androgen Receptor

>  <Target Organism>
Homo sapiens

>  <Target Description>
Target is a single protein chain

>  <Sequence Accession>
P10275

>  <Reference>
J Med Chem 39 (9), 1778-1789 (1996)

>  <Pubmed ID>
8627601

>  <DOI>
10.1021/jm950747d

$$$$
77285
Actelion Java MolfileCreator 1.0

 21 22  0  0  0  0  0  0  0  0999 V2000
    0.0000   -0.0000   -0.0000 Br  0  0  0  0  0  0  0  0  0  0  0  0
    1.2878   -0.7393   -0.0000 C   0  0  0  0  0  0  0  0  0  0  0  0
    2.5756    0.0238   -0.0000 C   0  0  0  0  0  0  0  0  0  0  0  0
    1.2759   -2.2417   -0.0000 C   0  0  0  0  0  0  0  0  0  0  0  0
    2.5637    1.5382   -0.0000 O   0  0  0  0  0  0  0  0  0  0  0  0
    3.8753   -0.7274   -0.0000 C   0  0  0  0  0  0  0  0  0  0  0  0
    2.5637   -2.9810   -0.0000 C   0  0  0  0  0  0  0  0  0  0  0  0
    3.8515    2.3013   -0.0000 C   0  0  0  0  0  0  0  0  0  0  0  0
    3.8634   -2.2059   -0.0000 C   0  0  0  0  0  0  0  0  0  0  0  0
    2.5517   -4.4715   -0.0000 O   0  0  0  0  0  0  0  0  0  0  0  0
    5.1631   -2.9452   -0.0000 C   0  0  0  0  0  0  0  0  0  0  0  0
    6.4509   -2.1702   -0.0000 C   0  0  0  0  0  0  0  0  0  0  0  0
    6.4151   -0.6558   -0.0000 C   0  0  0  0  0  0  0  0  0  0  0  0
    7.7387   -2.9214   -0.0000 C   0  0  0  0  0  0  0  0  0  0  0  0
    7.7268    0.1073   -0.0000 C   0  0  0  0  0  0  0  0  0  0  0  0
    5.1035    0.1073   -0.0000 C   0  0  0  0  0  0  0  0  0  0  0  0
    9.0146   -2.1583   -0.0000 C   0  0  0  0  0  0  0  0  0  0  0  0
    6.6417   -3.9707   -0.0000 C   0  0  0  0  0  0  0  0  0  0  0  0
    8.7880   -3.9707   -0.0000 C   0  0  0  0  0  0  0  0  0  0  0  0
    9.0146   -0.6320   -0.0000 C   0  0  0  0  0  0  0  0  0  0  0  0
   10.3024    0.1312   -0.0000 C   0  0  0  0  0  0  0  0  0  0  0  0
  1  2  1  0  0  0  0
  2  3  2  0  0  0  0
  2  4  1  0  0  0  0
  3  5  1  0  0  0  0
  3  6  1  0  0  0  0
  4  7  2  0  0  0  0
  5  8  1  0  0  0  0
  6  9  2  0  0  0  0
  7 10  1  0  0  0  0
  9 11  1  0  0  0  0
 11 12  1  0  0  0  0
 12 13  1  0  0  0  0
 12 14  1  0  0  0  0
 13 15  1  0  0  0  0
 13 16  2  0  0  0  0
 14 17  1  0  0  0  0
 14 18  1  0  0  0  0
 14 19  1  0  0  0  0
 15 20  2  0  0  0  0
 20 21  1  0  0  0  0
  7  9  1  0  0  0  0
 17 20  1  0  0  0  0
M  END
>  <MolRegNo>
77285

>  <m>
=

>  <Value>
1449

>  <Unit>
nM

>  <Type>
Ki

>  <pValue>
5.84

>  <Ligand Efficiency>
0.38

>  <Binding Efficiency>
16.62

>  <Surface Efficiency>
19.82

>  <Assay Index>
36069

>  <Assay Category>


>  <Assay Organism>


>  <Target ID>
56

>  <Target Name>
Androgen Receptor

>  <Target Organism>
Homo sapiens

>  <Target Description>
Target is a single protein chain

>  <Sequence Accession>
P10275

>  <Reference>
J Med Chem 39 (9), 1778-1789 (1996)

>  <Pubmed ID>
8627601

>  <DOI>
10.1021/jm950747d

$$$$
77718
Actelion Java MolfileCreator 1.0

 24 25  0  0  1  0  0  0  0  0999 V2000
    0.0000   -0.0000   -0.0000 Br  0  0  0  0  0  0  0  0  0  0  0  0
    1.2918   -0.7348   -0.0000 C   0  0  0  0  0  0  0  0  0  0  0  0
    2.5836    0.0237   -0.0000 C   0  0  0  0  0  0  0  0  0  0  0  0
    1.2918   -2.2281   -0.0000 C   0  0  0  0  0  0  0  0  0  0  0  0
    2.5718    1.5407   -0.0000 O   0  0  0  0  0  0  0  0  0  0  0  0
    3.8873   -0.7348   -0.0000 C   0  0  0  0  0  0  0  0  0  0  0  0
    2.5836   -2.9629   -0.0000 C   0  0  0  0  0  0  0  0  0  0  0  0
    3.8755    2.2874   -0.0000 C   0  0  0  0  0  0  0  0  0  0  0  0
    3.8755   -2.2044   -0.0000 C   0  0  0  0  0  0  0  0  0  0  0  0
    2.5718   -4.4562   -0.0000 O   0  0  0  0  0  0  0  0  0  0  0  0
    5.1673   -2.9392   -0.0000 C   0  0  0  0  0  0  0  0  0  0  0  0
    1.2563   -5.1910   -0.0000 C   0  0  0  0  0  0  0  0  0  0  0  0
    6.4591   -2.1807   -0.0000 C   0  0  0  0  0  0  0  0  0  0  0  0
   -0.0593   -4.4325   -0.0000 O   0  0  0  0  0  0  0  0  0  0  0  0
    1.2444   -6.6843   -0.0000 C   0  0  0  0  0  0  0  0  0  0  0  0
    6.4591   -0.6637   -0.0000 C   0  0  0  0  0  0  0  0  0  0  0  0
    7.7509   -2.9155   -0.0000 C   0  0  0  0  0  0  0  0  0  0  0  0
    7.7747    0.0948   -0.0000 C   0  0  0  0  0  0  0  0  0  0  0  0
    5.1673    0.1185   -0.0000 C   0  0  0  0  0  0  0  0  0  0  0  0
    9.0428   -2.1688   -0.0000 C   0  0  0  0  0  0  0  0  0  0  0  0
    6.6725   -3.9703   -0.0000 C   0  0  0  0  0  0  0  0  0  0  0  0
    8.8057   -3.9703   -0.0000 C   0  0  0  0  0  0  0  0  0  0  0  0
    9.0665   -0.6637   -0.0000 C   0  0  0  0  0  0  0  0  0  0  0  0
    7.7747    1.6118   -0.0000 C   0  0  0  0  0  0  0  0  0  0  0  0
  1  2  1  0  0  0  0
  2  3  2  0  0  0  0
  2  4  1  0  0  0  0
  3  5  1  0  0  0  0
  3  6  1  0  0  0  0
  4  7  2  0  0  0  0
  5  8  1  0  0  0  0
  6  9  2  0  0  0  0
  7 10  1  0  0  0  0
  9 11  1  0  0  0  0
 10 12  1  0  0  0  0
 13 11  1  6  0  0  0
 12 14  2  0  0  0  0
 12 15  1  0  0  0  0
 13 16  1  0  0  0  0
 13 17  1  0  0  0  0
 16 18  1  0  0  0  0
 16 19  2  0  0  0  0
 17 20  1  0  0  0  0
 17 21  1  0  0  0  0
 17 22  1  0  0  0  0
 18 23  2  0  0  0  0
 18 24  1  0  0  0  0
  7  9  1  0  0  0  0
 20 23  1  0  0  0  0
M  END
>  <MolRegNo>
77718

>  <m>
=

>  <Value>
6387

>  <Unit>
nM

>  <Type>
Ki

>  <pValue>
5.2

>  <Ligand Efficiency>
0.3

>  <Binding Efficiency>
13.21

>  <Surface Efficiency>
14.62

>  <Assay Index>
36069

>  <Assay Category>


>  <Assay Organism>


>  <Target ID>
56

>  <Target Name>
Androgen Receptor

>  <Target Organism>
Homo sapiens

>  <Target Description>
Target is a single protein chain

>  <Sequence Accession>
P10275

>  <Reference>
J Med Chem 39 (9), 1778-1789 (1996)

>  <Pubmed ID>
8627601

>  <DOI>
10.1021/jm950747d

$$$$
77442
Actelion Java MolfileCreator 1.0

 21 22  0  0  0  0  0  0  0  0999 V2000
    0.0000   -0.0000   -0.0000 Br  0  0  0  0  0  0  0  0  0  0  0  0
    1.2867   -0.7386   -0.0000 C   0  0  0  0  0  0  0  0  0  0  0  0
    2.5733    0.0238   -0.0000 C   0  0  0  0  0  0  0  0  0  0  0  0
    1.2748   -2.2398   -0.0000 C   0  0  0  0  0  0  0  0  0  0  0  0
    2.5614    1.5369   -0.0000 O   0  0  0  0  0  0  0  0  0  0  0  0
    3.8838   -0.7267   -0.0000 C   0  0  0  0  0  0  0  0  0  0  0  0
    2.5614   -2.9784   -0.0000 C   0  0  0  0  0  0  0  0  0  0  0  0
    3.8481    2.2993   -0.0000 C   0  0  0  0  0  0  0  0  0  0  0  0
    3.8719   -2.2040   -0.0000 C   0  0  0  0  0  0  0  0  0  0  0  0
    2.5495   -4.4676   -0.0000 O   0  0  0  0  0  0  0  0  0  0  0  0
    5.1586   -2.9427   -0.0000 C   0  0  0  0  0  0  0  0  0  0  0  0
    6.4452   -2.1564   -0.0000 C   0  0  0  0  0  0  0  0  0  0  0  0
    6.4333   -0.6433   -0.0000 C   0  0  0  0  0  0  0  0  0  0  0  0
    7.7319   -2.9188   -0.0000 C   0  0  0  0  0  0  0  0  0  0  0  0
    7.7438    0.0953   -0.0000 C   0  0  0  0  0  0  0  0  0  0  0  0
    5.1228    0.1191   -0.0000 C   0  0  0  0  0  0  0  0  0  0  0  0
    9.0186   -2.1683   -0.0000 C   0  0  0  0  0  0  0  0  0  0  0  0
    6.6478   -3.9672   -0.0000 C   0  0  0  0  0  0  0  0  0  0  0  0
    8.7922   -3.9672   -0.0000 C   0  0  0  0  0  0  0  0  0  0  0  0
    9.0305   -0.6552   -0.0000 C   0  0  0  0  0  0  0  0  0  0  0  0
   10.3410    0.1072   -0.0000 C   0  0  0  0  0  0  0  0  0  0  0  0
  1  2  1  0  0  0  0
  2  3  2  0  0  0  0
  2  4  1  0  0  0  0
  3  5  1  0  0  0  0
  3  6  1  0  0  0  0
  4  7  2  0  0  0  0
  5  8  1  0  0  0  0
  6  9  2  0  0  0  0
  7 10  1  0  0  0  0
  9 11  1  0  0  0  0
 11 12  1  0  0  0  0
 12 13  1  0  0  0  0
 12 14  1  0  0  0  0
 13 15  2  0  0  0  0
 13 16  1  0  0  0  0
 14 17  1  0  0  0  0
 14 18  1  0  0  0  0
 14 19  1  0  0  0  0
 15 20  1  0  0  0  0
 20 21  2  0  0  0  0
  7  9  1  0  0  0  0
 17 20  1  0  0  0  0
M  END
>  <MolRegNo>
77442

>  <m>
=

>  <Value>
1591

>  <Unit>
nM

>  <Type>
Ki

>  <pValue>
5.8

>  <Ligand Efficiency>
0.38

>  <Binding Efficiency>
16.51

>  <Surface Efficiency>
19.68

>  <Assay Index>
36069

>  <Assay Category>


>  <Assay Organism>


>  <Target ID>
56

>  <Target Name>
Androgen Receptor

>  <Target Organism>
Homo sapiens

>  <Target Description>
Target is a single protein chain

>  <Sequence Accession>
P10275

>  <Reference>
J Med Chem 39 (9), 1778-1789 (1996)

>  <Pubmed ID>
8627601

>  <DOI>
10.1021/jm950747d

$$$$
187461
Actelion Java MolfileCreator 1.0

 26 29  0  0  0  0  0  0  0  0999 V2000
    0.0000   -0.0000   -0.0000 O   0  0  0  0  0  0  0  0  0  0  0  0
   -1.3138   -0.7405   -0.0000 C   0  0  0  0  0  0  0  0  0  0  0  0
    1.3018   -0.7405   -0.0000 C   0  0  0  0  0  0  0  0  0  0  0  0
   -1.3257   -2.2334   -0.0000 C   0  0  0  0  0  0  0  0  0  0  0  0
   -2.6275    0.0239   -0.0000 C   0  0  0  0  0  0  0  0  0  0  0  0
    1.2899   -2.2453   -0.0000 C   0  0  0  0  0  0  0  0  0  0  0  0
    2.5917    0.0119   -0.0000 C   0  0  0  0  0  0  0  0  0  0  0  0
   -0.0358   -2.9739   -0.0000 C   0  0  0  0  0  0  0  0  0  0  0  0
   -2.6394   -2.9858   -0.0000 C   0  0  0  0  0  0  0  0  0  0  0  0
   -3.9413   -0.7285   -0.0000 C   0  0  0  0  0  0  0  0  0  0  0  0
    2.5558   -2.9858   -0.0000 C   0  0  0  0  0  0  0  0  0  0  0  0
    2.5797    1.5287   -0.0000 C   0  0  0  0  0  0  0  0  0  0  0  0
   -0.0597   -4.4668   -0.0000 C   0  0  0  0  0  0  0  0  0  0  0  0
   -3.9532   -2.2214   -0.0000 C   0  0  0  0  0  0  0  0  0  0  0  0
    2.5439   -4.4787   -0.0000 C   0  0  0  0  0  0  0  0  0  0  0  0
    3.8457   -2.2334   -0.0000 C   0  0  0  0  0  0  0  0  0  0  0  0
    3.8696    2.2931   -0.0000 C   0  0  0  0  0  0  0  0  0  0  0  0
    1.2302   -5.2192   -0.0000 C   0  0  0  0  0  0  0  0  0  0  0  0
   -5.2670   -2.9619   -0.0000 C   0  0  0  0  0  0  0  0  0  0  0  0
    3.8218   -5.2072   -0.0000 N   0  0  0  0  0  0  0  0  0  0  0  0
    5.1356   -2.9739   -0.0000 C   0  0  0  0  0  0  0  0  0  0  0  0
    3.8577   -0.7166   -0.0000 C   0  0  0  0  0  0  0  0  0  0  0  0
    3.8696    3.8099   -0.0000 C   0  0  0  0  0  0  0  0  0  0  0  0
    5.1117   -4.4668   -0.0000 C   0  0  0  0  0  0  0  0  0  0  0  0
    5.0878   -5.9597   -0.0000 C   0  0  0  0  0  0  0  0  0  0  0  0
    6.4016   -3.6905   -0.0000 C   0  0  0  0  0  0  0  0  0  0  0  0
  1  2  1  0  0  0  0
  1  3  1  0  0  0  0
  2  4  2  0  0  0  0
  2  5  1  0  0  0  0
  3  6  1  0  0  0  0
  3  7  1  0  0  0  0
  4  8  1  0  0  0  0
  4  9  1  0  0  0  0
  5 10  2  0  0  0  0
  6 11  1  0  0  0  0
  7 12  1  0  0  0  0
  8 13  1  0  0  0  0
  9 14  2  0  0  0  0
 11 15  2  0  0  0  0
 11 16  1  0  0  0  0
 12 17  1  0  0  0  0
 13 18  2  0  0  0  0
 14 19  1  0  0  0  0
 15 20  1  0  0  0  0
 16 21  2  0  0  0  0
 16 22  1  0  0  0  0
 17 23  1  0  0  0  0
 20 24  1  0  0  0  0
 24 25  1  0  0  0  0
 24 26  1  0  0  0  0
  6  8  2  0  0  0  0
 10 14  1  0  0  0  0
 15 18  1  0  0  0  0
 21 24  1  0  0  0  0
M  END
>  <MolRegNo>
187461

>  <m>
=

>  <Value>
903

>  <Unit>
nM

>  <Type>
Ki

>  <pValue>
6.04

>  <Ligand Efficiency>
0.32

>  <Binding Efficiency>
17.39

>  <Surface Efficiency>
28.43

>  <Assay Index>
36202

>  <Assay Category>


>  <Assay Organism>
Homo sapiens

>  <Target ID>
56

>  <Target Name>
Androgen Receptor

>  <Target Organism>
Homo sapiens

>  <Target Description>
Target is a single protein chain

>  <Sequence Accession>
P10275

>  <Reference>
Bioorg Med Chem Lett 8 (23), 3365-3370 (1998)

>  <Pubmed ID>
9873735

>  <DOI>
10.1016/s0960-894x(98)00608-8

$$$$
187421
Actelion Java MolfileCreator 1.0

 27 30  0  0  0  0  0  0  0  0999 V2000
    0.0000   -0.0000   -0.0000 O   0  0  0  0  0  0  0  0  0  0  0  0
   -1.3132   -0.7402   -0.0000 C   0  0  0  0  0  0  0  0  0  0  0  0
    1.3012   -0.7402   -0.0000 C   0  0  0  0  0  0  0  0  0  0  0  0
   -1.3251   -2.2324   -0.0000 C   0  0  0  0  0  0  0  0  0  0  0  0
   -2.6263    0.0239   -0.0000 C   0  0  0  0  0  0  0  0  0  0  0  0
    1.2893   -2.2443   -0.0000 C   0  0  0  0  0  0  0  0  0  0  0  0
    2.5905    0.0119   -0.0000 C   0  0  0  0  0  0  0  0  0  0  0  0
   -0.0358   -2.9725   -0.0000 C   0  0  0  0  0  0  0  0  0  0  0  0
   -2.6383   -2.9845   -0.0000 C   0  0  0  0  0  0  0  0  0  0  0  0
   -3.9395   -0.7282   -0.0000 C   0  0  0  0  0  0  0  0  0  0  0  0
    2.5547   -2.9845   -0.0000 C   0  0  0  0  0  0  0  0  0  0  0  0
    2.5786    1.5281   -0.0000 C   0  0  0  0  0  0  0  0  0  0  0  0
   -0.0597   -4.4648   -0.0000 C   0  0  0  0  0  0  0  0  0  0  0  0
   -3.9515   -2.2205   -0.0000 C   0  0  0  0  0  0  0  0  0  0  0  0
    2.5428   -4.4767   -0.0000 C   0  0  0  0  0  0  0  0  0  0  0  0
    3.8440   -2.2324   -0.0000 C   0  0  0  0  0  0  0  0  0  0  0  0
    3.8679    2.2921   -0.0000 C   0  0  0  0  0  0  0  0  0  0  0  0
    1.2296   -5.2169   -0.0000 C   0  0  0  0  0  0  0  0  0  0  0  0
   -5.2646   -2.9606   -0.0000 O   0  0  0  0  0  0  0  0  0  0  0  0
    3.8201   -5.2049   -0.0000 N   0  0  0  0  0  0  0  0  0  0  0  0
    5.1333   -2.9725   -0.0000 C   0  0  0  0  0  0  0  0  0  0  0  0
    3.8559   -0.7163   -0.0000 C   0  0  0  0  0  0  0  0  0  0  0  0
    3.8679    3.8082   -0.0000 C   0  0  0  0  0  0  0  0  0  0  0  0
   -6.5778   -2.1966   -0.0000 C   0  0  0  0  0  0  0  0  0  0  0  0
    5.1094   -4.4648   -0.0000 C   0  0  0  0  0  0  0  0  0  0  0  0
    6.3987   -3.6888   -0.0000 C   0  0  0  0  0  0  0  0  0  0  0  0
    5.0856   -5.9570   -0.0000 C   0  0  0  0  0  0  0  0  0  0  0  0
  1  2  1  0  0  0  0
  1  3  1  0  0  0  0
  2  4  2  0  0  0  0
  2  5  1  0  0  0  0
  3  6  1  0  0  0  0
  3  7  1  0  0  0  0
  4  8  1  0  0  0  0
  4  9  1  0  0  0  0
  5 10  2  0  0  0  0
  6 11  1  0  0  0  0
  7 12  1  0  0  0  0
  8 13  1  0  0  0  0
  9 14  2  0  0  0  0
 11 15  2  0  0  0  0
 11 16  1  0  0  0  0
 12 17  1  0  0  0  0
 13 18  2  0  0  0  0
 14 19  1  0  0  0  0
 15 20  1  0  0  0  0
 16 21  2  0  0  0  0
 16 22  1  0  0  0  0
 17 23  1  0  0  0  0
 19 24  1  0  0  0  0
 20 25  1  0  0  0  0
 25 26  1  0  0  0  0
 25 27  1  0  0  0  0
  6  8  2  0  0  0  0
 10 14  1  0  0  0  0
 15 18  1  0  0  0  0
 21 25  1  0  0  0  0
M  END
>  <MolRegNo>
187421

>  <m>
=

>  <Value>
785

>  <Unit>
nM

>  <Type>
Ki

>  <pValue>
6.11

>  <Ligand Efficiency>
0.31

>  <Binding Efficiency>
16.8

>  <Surface Efficiency>
20.02

>  <Assay Index>
36202

>  <Assay Category>


>  <Assay Organism>
Homo sapiens

>  <Target ID>
56

>  <Target Name>
Androgen Receptor

>  <Target Organism>
Homo sapiens

>  <Target Description>
Target is a single protein chain

>  <Sequence Accession>
P10275

>  <Reference>
Bioorg Med Chem Lett 8 (23), 3365-3370 (1998)

>  <Pubmed ID>
9873735

>  <DOI>
10.1016/s0960-894x(98)00608-8

$$$$
187470
Actelion Java MolfileCreator 1.0

 26 29  0  0  0  0  0  0  0  0999 V2000
    0.0000   -0.0000   -0.0000 F   0  0  0  0  0  0  0  0  0  0  0  0
    1.3012    0.7521   -0.0000 C   0  0  0  0  0  0  0  0  0  0  0  0
    2.5905    0.0119   -0.0000 C   0  0  0  0  0  0  0  0  0  0  0  0
    1.2893    2.2682   -0.0000 C   0  0  0  0  0  0  0  0  0  0  0  0
    3.8798    0.7879   -0.0000 C   0  0  0  0  0  0  0  0  0  0  0  0
    2.5786    3.0442   -0.0000 C   0  0  0  0  0  0  0  0  0  0  0  0
    3.8679    2.3040   -0.0000 C   0  0  0  0  0  0  0  0  0  0  0  0
    5.1691    0.0478   -0.0000 C   0  0  0  0  0  0  0  0  0  0  0  0
    5.1572    3.0680   -0.0000 O   0  0  0  0  0  0  0  0  0  0  0  0
    6.4704    0.7998   -0.0000 C   0  0  0  0  0  0  0  0  0  0  0  0
    5.1452   -1.4445   -0.0000 C   0  0  0  0  0  0  0  0  0  0  0  0
    6.4584    2.3279   -0.0000 C   0  0  0  0  0  0  0  0  0  0  0  0
    7.7477    0.0597   -0.0000 C   0  0  0  0  0  0  0  0  0  0  0  0
    6.4345   -2.1966   -0.0000 C   0  0  0  0  0  0  0  0  0  0  0  0
    7.7596    3.0800   -0.0000 C   0  0  0  0  0  0  0  0  0  0  0  0
    7.7358   -1.4326   -0.0000 C   0  0  0  0  0  0  0  0  0  0  0  0
    9.0370    0.8237   -0.0000 C   0  0  0  0  0  0  0  0  0  0  0  0
    7.7477    4.5961   -0.0000 C   0  0  0  0  0  0  0  0  0  0  0  0
    9.0131   -2.1608   -0.0000 N   0  0  0  0  0  0  0  0  0  0  0  0
   10.3263    0.0836   -0.0000 C   0  0  0  0  0  0  0  0  0  0  0  0
    9.0489    2.3518   -0.0000 C   0  0  0  0  0  0  0  0  0  0  0  0
    9.0370    5.3601   -0.0000 C   0  0  0  0  0  0  0  0  0  0  0  0
   10.3024   -1.4206   -0.0000 C   0  0  0  0  0  0  0  0  0  0  0  0
    9.0370    6.8762   -0.0000 C   0  0  0  0  0  0  0  0  0  0  0  0
   11.5917   -0.6446   -0.0000 C   0  0  0  0  0  0  0  0  0  0  0  0
   10.2785   -2.9129   -0.0000 C   0  0  0  0  0  0  0  0  0  0  0  0
  1  2  1  0  0  0  0
  2  3  2  0  0  0  0
  2  4  1  0  0  0  0
  3  5  1  0  0  0  0
  4  6  2  0  0  0  0
  5  7  2  0  0  0  0
  5  8  1  0  0  0  0
  7  9  1  0  0  0  0
  8 10  2  0  0  0  0
  8 11  1  0  0  0  0
  9 12  1  0  0  0  0
 10 13  1  0  0  0  0
 11 14  2  0  0  0  0
 12 15  1  0  0  0  0
 13 16  2  0  0  0  0
 13 17  1  0  0  0  0
 15 18  1  0  0  0  0
 16 19  1  0  0  0  0
 17 20  2  0  0  0  0
 17 21  1  0  0  0  0
 18 22  1  0  0  0  0
 19 23  1  0  0  0  0
 22 24  1  0  0  0  0
 23 25  1  0  0  0  0
 23 26  1  0  0  0  0
  6  7  1  0  0  0  0
 10 12  1  0  0  0  0
 14 16  1  0  0  0  0
 20 23  1  0  0  0  0
M  END
>  <MolRegNo>
187470

>  <m>
=

>  <Value>
1330

>  <Unit>
nM

>  <Type>
Ki

>  <pValue>
5.88

>  <Ligand Efficiency>
0.31

>  <Binding Efficiency>
16.72

>  <Surface Efficiency>
27.64

>  <Assay Index>
36202

>  <Assay Category>


>  <Assay Organism>
Homo sapiens

>  <Target ID>
56

>  <Target Name>
Androgen Receptor

>  <Target Organism>
Homo sapiens

>  <Target Description>
Target is a single protein chain

>  <Sequence Accession>
P10275

>  <Reference>
Bioorg Med Chem Lett 8 (23), 3365-3370 (1998)

>  <Pubmed ID>
9873735

>  <DOI>
10.1016/s0960-894x(98)00608-8

$$$$
49925
Actelion Java MolfileCreator 1.0

 23 26  0  0  0  0  0  0  0  0999 V2000
    0.0000   -0.0000   -0.0000 Cl  0  0  0  0  0  0  0  0  0  0  0  0
    1.2936    0.7596   -0.0000 C   0  0  0  0  0  0  0  0  0  0  0  0
    2.5873    0.0119   -0.0000 C   0  0  0  0  0  0  0  0  0  0  0  0
    1.2818    2.2787   -0.0000 C   0  0  0  0  0  0  0  0  0  0  0  0
    3.8809    0.7714   -0.0000 C   0  0  0  0  0  0  0  0  0  0  0  0
    2.5754    3.0383   -0.0000 C   0  0  0  0  0  0  0  0  0  0  0  0
    3.8691    2.2906   -0.0000 C   0  0  0  0  0  0  0  0  0  0  0  0
    5.1746    0.0237   -0.0000 C   0  0  0  0  0  0  0  0  0  0  0  0
    5.1627    3.0620   -0.0000 O   0  0  0  0  0  0  0  0  0  0  0  0
    6.4682    0.7833   -0.0000 C   0  0  0  0  0  0  0  0  0  0  0  0
    5.1508   -1.4598   -0.0000 C   0  0  0  0  0  0  0  0  0  0  0  0
    6.4563    2.3143   -0.0000 C   0  0  0  0  0  0  0  0  0  0  0  0
    7.7618    0.0356   -0.0000 C   0  0  0  0  0  0  0  0  0  0  0  0
    6.4445   -2.2075   -0.0000 C   0  0  0  0  0  0  0  0  0  0  0  0
    7.7737    3.0739   -0.0000 C   0  0  0  0  0  0  0  0  0  0  0  0
    7.7500   -1.4598   -0.0000 C   0  0  0  0  0  0  0  0  0  0  0  0
    9.0555    0.7833   -0.0000 C   0  0  0  0  0  0  0  0  0  0  0  0
    9.0317   -2.1956   -0.0000 N   0  0  0  0  0  0  0  0  0  0  0  0
   10.3491    0.0356   -0.0000 C   0  0  0  0  0  0  0  0  0  0  0  0
    9.0436    2.3024   -0.0000 C   0  0  0  0  0  0  0  0  0  0  0  0
   10.3254   -1.4479   -0.0000 C   0  0  0  0  0  0  0  0  0  0  0  0
   11.8208   -1.4361   -0.0000 C   0  0  0  0  0  0  0  0  0  0  0  0
   10.3016   -2.9433   -0.0000 C   0  0  0  0  0  0  0  0  0  0  0  0
  1  2  1  0  0  0  0
  2  3  2  0  0  0  0
  2  4  1  0  0  0  0
  3  5  1  0  0  0  0
  4  6  2  0  0  0  0
  5  7  2  0  0  0  0
  5  8  1  0  0  0  0
  7  9  1  0  0  0  0
  8 10  2  0  0  0  0
  8 11  1  0  0  0  0
  9 12  1  0  0  0  0
 10 13  1  0  0  0  0
 11 14  2  0  0  0  0
 12 15  1  0  0  0  0
 13 16  2  0  0  0  0
 13 17  1  0  0  0  0
 16 18  1  0  0  0  0
 17 19  2  0  0  0  0
 17 20  1  0  0  0  0
 18 21  1  0  0  0  0
 21 22  1  0  0  0  0
 21 23  1  0  0  0  0
  6  7  1  0  0  0  0
 10 12  1  0  0  0  0
 14 16  1  0  0  0  0
 19 21  1  0  0  0  0
M  END
>  <MolRegNo>
49925

>  <m>
=

>  <Value>
621

>  <Unit>
nM

>  <Type>
Ki

>  <pValue>
6.21

>  <Ligand Efficiency>
0.37

>  <Binding Efficiency>
19.05

>  <Surface Efficiency>
29.2

>  <Assay Index>
36202

>  <Assay Category>


>  <Assay Organism>
Homo sapiens

>  <Target ID>
56

>  <Target Name>
Androgen Receptor

>  <Target Organism>
Homo sapiens

>  <Target Description>
Target is a single protein chain

>  <Sequence Accession>
P10275

>  <Reference>
Bioorg Med Chem Lett 8 (23), 3365-3370 (1998)

>  <Pubmed ID>
9873735

>  <DOI>
10.1016/s0960-894x(98)00608-8

$$$$
187045
Actelion Java MolfileCreator 1.0

 26 29  0  0  0  0  0  0  0  0999 V2000
    0.0000   -0.0000   -0.0000 Cl  0  0  0  0  0  0  0  0  0  0  0  0
    1.3012    0.7521   -0.0000 C   0  0  0  0  0  0  0  0  0  0  0  0
    2.5905    0.0119   -0.0000 C   0  0  0  0  0  0  0  0  0  0  0  0
    1.2893    2.2682   -0.0000 C   0  0  0  0  0  0  0  0  0  0  0  0
    3.8798    0.7879   -0.0000 C   0  0  0  0  0  0  0  0  0  0  0  0
    2.5786    3.0442   -0.0000 C   0  0  0  0  0  0  0  0  0  0  0  0
    3.8679    2.3040   -0.0000 C   0  0  0  0  0  0  0  0  0  0  0  0
    5.1691    0.0478   -0.0000 C   0  0  0  0  0  0  0  0  0  0  0  0
    5.1572    3.0680   -0.0000 O   0  0  0  0  0  0  0  0  0  0  0  0
    6.4704    0.7998   -0.0000 C   0  0  0  0  0  0  0  0  0  0  0  0
    5.1452   -1.4445   -0.0000 C   0  0  0  0  0  0  0  0  0  0  0  0
    6.4584    2.3279   -0.0000 C   0  0  0  0  0  0  0  0  0  0  0  0
    7.7477    0.0597   -0.0000 C   0  0  0  0  0  0  0  0  0  0  0  0
    6.4345   -2.1966   -0.0000 C   0  0  0  0  0  0  0  0  0  0  0  0
    7.7596    3.0800   -0.0000 C   0  0  0  0  0  0  0  0  0  0  0  0
    7.7358   -1.4326   -0.0000 C   0  0  0  0  0  0  0  0  0  0  0  0
    9.0370    0.8237   -0.0000 C   0  0  0  0  0  0  0  0  0  0  0  0
    7.7477    4.5961   -0.0000 C   0  0  0  0  0  0  0  0  0  0  0  0
    9.0131   -2.1608   -0.0000 N   0  0  0  0  0  0  0  0  0  0  0  0
   10.3263    0.0836   -0.0000 C   0  0  0  0  0  0  0  0  0  0  0  0
    9.0489    2.3518   -0.0000 C   0  0  0  0  0  0  0  0  0  0  0  0
    9.0370    5.3601   -0.0000 C   0  0  0  0  0  0  0  0  0  0  0  0
   10.3024   -1.4206   -0.0000 C   0  0  0  0  0  0  0  0  0  0  0  0
    9.0370    6.8762   -0.0000 C   0  0  0  0  0  0  0  0  0  0  0  0
   11.5917   -0.6446   -0.0000 C   0  0  0  0  0  0  0  0  0  0  0  0
   10.2785   -2.9129   -0.0000 C   0  0  0  0  0  0  0  0  0  0  0  0
  1  2  1  0  0  0  0
  2  3  2  0  0  0  0
  2  4  1  0  0  0  0
  3  5  1  0  0  0  0
  4  6  2  0  0  0  0
  5  7  2  0  0  0  0
  5  8  1  0  0  0  0
  7  9  1  0  0  0  0
  8 10  2  0  0  0  0
  8 11  1  0  0  0  0
  9 12  1  0  0  0  0
 10 13  1  0  0  0  0
 11 14  2  0  0  0  0
 12 15  1  0  0  0  0
 13 16  2  0  0  0  0
 13 17  1  0  0  0  0
 15 18  1  0  0  0  0
 16 19  1  0  0  0  0
 17 20  2  0  0  0  0
 17 21  1  0  0  0  0
 18 22  1  0  0  0  0
 19 23  1  0  0  0  0
 22 24  1  0  0  0  0
 23 25  1  0  0  0  0
 23 26  1  0  0  0  0
  6  7  1  0  0  0  0
 10 12  1  0  0  0  0
 14 16  1  0  0  0  0
 20 23  1  0  0  0  0
M  END
>  <MolRegNo>
187045

>  <m>
=

>  <Value>
886

>  <Unit>
nM

>  <Type>
Ki

>  <pValue>
6.05

>  <Ligand Efficiency>
0.32

>  <Binding Efficiency>
16.45

>  <Surface Efficiency>
28.47

>  <Assay Index>
36202

>  <Assay Category>


>  <Assay Organism>
Homo sapiens

>  <Target ID>
56

>  <Target Name>
Androgen Receptor

>  <Target Organism>
Homo sapiens

>  <Target Description>
Target is a single protein chain

>  <Sequence Accession>
P10275

>  <Reference>
Bioorg Med Chem Lett 8 (23), 3365-3370 (1998)

>  <Pubmed ID>
9873735

>  <DOI>
10.1016/s0960-894x(98)00608-8

$$$$
187139
Actelion Java MolfileCreator 1.0

 23 26  0  0  0  0  0  0  0  0999 V2000
    0.0000   -0.0000   -0.0000 F   0  0  0  0  0  0  0  0  0  0  0  0
    1.2941    0.7480   -0.0000 C   0  0  0  0  0  0  0  0  0  0  0  0
    2.5882    0.0119   -0.0000 C   0  0  0  0  0  0  0  0  0  0  0  0
    1.2822    2.2676   -0.0000 C   0  0  0  0  0  0  0  0  0  0  0  0
    3.8822    0.7954   -0.0000 C   0  0  0  0  0  0  0  0  0  0  0  0
    2.5763    3.0512   -0.0000 C   0  0  0  0  0  0  0  0  0  0  0  0
    3.8704    2.3151   -0.0000 C   0  0  0  0  0  0  0  0  0  0  0  0
    5.1763    0.0594   -0.0000 C   0  0  0  0  0  0  0  0  0  0  0  0
    5.1645    3.0749   -0.0000 O   0  0  0  0  0  0  0  0  0  0  0  0
    6.4823    0.8073   -0.0000 C   0  0  0  0  0  0  0  0  0  0  0  0
    5.1526   -1.4365   -0.0000 C   0  0  0  0  0  0  0  0  0  0  0  0
    6.4704    2.3388   -0.0000 C   0  0  0  0  0  0  0  0  0  0  0  0
    7.7526    0.0712   -0.0000 C   0  0  0  0  0  0  0  0  0  0  0  0
    6.4467   -2.1964   -0.0000 C   0  0  0  0  0  0  0  0  0  0  0  0
    7.7645    3.0868   -0.0000 C   0  0  0  0  0  0  0  0  0  0  0  0
    7.7407   -1.4247   -0.0000 C   0  0  0  0  0  0  0  0  0  0  0  0
    9.0467    0.8311   -0.0000 C   0  0  0  0  0  0  0  0  0  0  0  0
    9.0229   -2.1489   -0.0000 N   0  0  0  0  0  0  0  0  0  0  0  0
   10.3408    0.0950   -0.0000 C   0  0  0  0  0  0  0  0  0  0  0  0
    9.0348    2.3507   -0.0000 C   0  0  0  0  0  0  0  0  0  0  0  0
   10.3170   -1.4009   -0.0000 C   0  0  0  0  0  0  0  0  0  0  0  0
   10.2933   -2.8968   -0.0000 C   0  0  0  0  0  0  0  0  0  0  0  0
   11.6111   -0.6292   -0.0000 C   0  0  0  0  0  0  0  0  0  0  0  0
  1  2  1  0  0  0  0
  2  3  2  0  0  0  0
  2  4  1  0  0  0  0
  3  5  1  0  0  0  0
  4  6  2  0  0  0  0
  5  7  2  0  0  0  0
  5  8  1  0  0  0  0
  7  9  1  0  0  0  0
  8 10  2  0  0  0  0
  8 11  1  0  0  0  0
  9 12  1  0  0  0  0
 10 13  1  0  0  0  0
 11 14  2  0  0  0  0
 12 15  1  0  0  0  0
 13 16  2  0  0  0  0
 13 17  1  0  0  0  0
 16 18  1  0  0  0  0
 17 19  2  0  0  0  0
 17 20  1  0  0  0  0
 18 21  1  0  0  0  0
 21 22  1  0  0  0  0
 21 23  1  0  0  0  0
  6  7  1  0  0  0  0
 10 12  1  0  0  0  0
 14 16  1  0  0  0  0
 19 21  1  0  0  0  0
M  END
>  <MolRegNo>
187139

>  <m>
=

>  <Value>
456

>  <Unit>
nM

>  <Type>
Ki

>  <pValue>
6.34

>  <Ligand Efficiency>
0.38

>  <Binding Efficiency>
20.5

>  <Surface Efficiency>
29.83

>  <Assay Index>
36202

>  <Assay Category>


>  <Assay Organism>
Homo sapiens

>  <Target ID>
56

>  <Target Name>
Androgen Receptor

>  <Target Organism>
Homo sapiens

>  <Target Description>
Target is a single protein chain

>  <Sequence Accession>
P10275

>  <Reference>
Bioorg Med Chem Lett 8 (23), 3365-3370 (1998)

>  <Pubmed ID>
9873735

>  <DOI>
10.1016/s0960-894x(98)00608-8

$$$$
187452
Actelion Java MolfileCreator 1.0

 26 29  0  0  0  0  0  0  0  0999 V2000
    0.0000   -0.0000   -0.0000 O   0  0  0  0  0  0  0  0  0  0  0  0
   -1.3147   -0.7410   -0.0000 C   0  0  0  0  0  0  0  0  0  0  0  0
    1.3027   -0.7410   -0.0000 C   0  0  0  0  0  0  0  0  0  0  0  0
   -1.3266   -2.2349   -0.0000 C   0  0  0  0  0  0  0  0  0  0  0  0
   -2.6293    0.0239   -0.0000 C   0  0  0  0  0  0  0  0  0  0  0  0
    1.2908   -2.2469   -0.0000 C   0  0  0  0  0  0  0  0  0  0  0  0
    2.5935    0.0120   -0.0000 C   0  0  0  0  0  0  0  0  0  0  0  0
   -0.0359   -2.9759   -0.0000 C   0  0  0  0  0  0  0  0  0  0  0  0
   -2.6413   -2.9879   -0.0000 C   0  0  0  0  0  0  0  0  0  0  0  0
   -3.9440   -0.7290   -0.0000 C   0  0  0  0  0  0  0  0  0  0  0  0
    2.5576   -2.9879   -0.0000 C   0  0  0  0  0  0  0  0  0  0  0  0
    2.5696    1.5298   -0.0000 C   0  0  0  0  0  0  0  0  0  0  0  0
   -0.0598   -4.4699   -0.0000 C   0  0  0  0  0  0  0  0  0  0  0  0
   -3.9560   -2.2230   -0.0000 C   0  0  0  0  0  0  0  0  0  0  0  0
    2.5457   -4.4818   -0.0000 C   0  0  0  0  0  0  0  0  0  0  0  0
    3.8484   -2.2349   -0.0000 C   0  0  0  0  0  0  0  0  0  0  0  0
    3.8364    2.3066   -0.0000 C   0  0  0  0  0  0  0  0  0  0  0  0
    1.2310   -5.2228   -0.0000 C   0  0  0  0  0  0  0  0  0  0  0  0
    3.8245   -5.2109   -0.0000 N   0  0  0  0  0  0  0  0  0  0  0  0
    5.1392   -2.9759   -0.0000 C   0  0  0  0  0  0  0  0  0  0  0  0
    3.8364   -0.7171   -0.0000 C   0  0  0  0  0  0  0  0  0  0  0  0
    5.1392    1.5776   -0.0000 C   0  0  0  0  0  0  0  0  0  0  0  0
    3.8245    3.8245   -0.0000 C   0  0  0  0  0  0  0  0  0  0  0  0
    5.1153   -4.4699   -0.0000 C   0  0  0  0  0  0  0  0  0  0  0  0
    5.0914   -5.9638   -0.0000 C   0  0  0  0  0  0  0  0  0  0  0  0
    6.4060   -3.6930   -0.0000 C   0  0  0  0  0  0  0  0  0  0  0  0
  1  2  1  0  0  0  0
  1  3  1  0  0  0  0
  2  4  2  0  0  0  0
  2  5  1  0  0  0  0
  3  6  1  0  0  0  0
  3  7  1  0  0  0  0
  4  8  1  0  0  0  0
  4  9  1  0  0  0  0
  5 10  2  0  0  0  0
  6 11  1  0  0  0  0
  7 12  1  0  0  0  0
  8 13  1  0  0  0  0
  9 14  2  0  0  0  0
 11 15  2  0  0  0  0
 11 16  1  0  0  0  0
 12 17  1  0  0  0  0
 13 18  2  0  0  0  0
 15 19  1  0  0  0  0
 16 20  2  0  0  0  0
 16 21  1  0  0  0  0
 17 22  1  0  0  0  0
 17 23  1  0  0  0  0
 19 24  1  0  0  0  0
 24 25  1  0  0  0  0
 24 26  1  0  0  0  0
  6  8  2  0  0  0  0
 10 14  1  0  0  0  0
 15 18  1  0  0  0  0
 20 24  1  0  0  0  0
M  END
>  <MolRegNo>
187452

>  <m>
=

>  <Value>
1485

>  <Unit>
nM

>  <Type>
Ki

>  <pValue>
5.83

>  <Ligand Efficiency>
0.31

>  <Binding Efficiency>
16.77

>  <Surface Efficiency>
27.41

>  <Assay Index>
36202

>  <Assay Category>


>  <Assay Organism>
Homo sapiens

>  <Target ID>
56

>  <Target Name>
Androgen Receptor

>  <Target Organism>
Homo sapiens

>  <Target Description>
Target is a single protein chain

>  <Sequence Accession>
P10275

>  <Reference>
Bioorg Med Chem Lett 8 (23), 3365-3370 (1998)

>  <Pubmed ID>
9873735

>  <DOI>
10.1016/s0960-894x(98)00608-8

$$$$
188065
Actelion Java MolfileCreator 1.0

 26 29  0  0  0  0  0  0  0  0999 V2000
    0.0000   -0.0000   -0.0000 Cl  0  0  0  0  0  0  0  0  0  0  0  0
    1.2910    0.7651   -0.0000 C   0  0  0  0  0  0  0  0  0  0  0  0
    2.5821    0.0239   -0.0000 C   0  0  0  0  0  0  0  0  0  0  0  0
    1.2791    2.2832   -0.0000 C   0  0  0  0  0  0  0  0  0  0  0  0
    3.8731    0.7890   -0.0000 C   0  0  0  0  0  0  0  0  0  0  0  0
    2.5701    3.0483   -0.0000 C   0  0  0  0  0  0  0  0  0  0  0  0
    3.8731    2.3072   -0.0000 C   0  0  0  0  0  0  0  0  0  0  0  0
    5.1762    0.0478   -0.0000 C   0  0  0  0  0  0  0  0  0  0  0  0
    5.1642    3.0842   -0.0000 O   0  0  0  0  0  0  0  0  0  0  0  0
    6.4672    0.8129   -0.0000 C   0  0  0  0  0  0  0  0  0  0  0  0
    5.1522   -1.4345   -0.0000 C   0  0  0  0  0  0  0  0  0  0  0  0
    6.4552    2.3311   -0.0000 C   0  0  0  0  0  0  0  0  0  0  0  0
    7.7463    0.0717   -0.0000 C   0  0  0  0  0  0  0  0  0  0  0  0
    6.4433   -2.1876   -0.0000 C   0  0  0  0  0  0  0  0  0  0  0  0
    7.7463    3.0961   -0.0000 O   0  0  0  0  0  0  0  0  0  0  0  0
    7.7224   -1.4225   -0.0000 C   0  0  0  0  0  0  0  0  0  0  0  0
    9.0373    0.8248   -0.0000 C   0  0  0  0  0  0  0  0  0  0  0  0
    7.7343    4.6143   -0.0000 C   0  0  0  0  0  0  0  0  0  0  0  0
    9.0134   -2.1637   -0.0000 N   0  0  0  0  0  0  0  0  0  0  0  0
   10.3045    0.0717   -0.0000 C   0  0  0  0  0  0  0  0  0  0  0  0
    9.0373    2.3550   -0.0000 C   0  0  0  0  0  0  0  0  0  0  0  0
    9.0373    5.3794   -0.0000 C   0  0  0  0  0  0  0  0  0  0  0  0
   10.3045   -1.4106   -0.0000 C   0  0  0  0  0  0  0  0  0  0  0  0
    9.0373    6.8976   -0.0000 C   0  0  0  0  0  0  0  0  0  0  0  0
   11.5955   -0.6336   -0.0000 C   0  0  0  0  0  0  0  0  0  0  0  0
   10.2806   -2.9049   -0.0000 C   0  0  0  0  0  0  0  0  0  0  0  0
  1  2  1  0  0  0  0
  2  3  2  0  0  0  0
  2  4  1  0  0  0  0
  3  5  1  0  0  0  0
  4  6  2  0  0  0  0
  5  7  2  0  0  0  0
  5  8  1  0  0  0  0
  7  9  1  0  0  0  0
  8 10  2  0  0  0  0
  8 11  1  0  0  0  0
  9 12  1  0  0  0  0
 10 13  1  0  0  0  0
 11 14  2  0  0  0  0
 12 15  1  0  0  0  0
 13 16  2  0  0  0  0
 13 17  1  0  0  0  0
 15 18  1  0  0  0  0
 16 19  1  0  0  0  0
 17 20  2  0  0  0  0
 17 21  1  0  0  0  0
 18 22  1  0  0  0  0
 19 23  1  0  0  0  0
 22 24  1  0  0  0  0
 23 25  1  0  0  0  0
 23 26  1  0  0  0  0
  6  7  1  0  0  0  0
 10 12  1  0  0  0  0
 14 16  1  0  0  0  0
 20 23  1  0  0  0  0
M  END
>  <MolRegNo>
188065

>  <m>
=

>  <Value>
697

>  <Unit>
nM

>  <Type>
Ki

>  <pValue>
6.16

>  <Ligand Efficiency>
0.32

>  <Binding Efficiency>
16.64

>  <Surface Efficiency>
20.19

>  <Assay Index>
36202

>  <Assay Category>


>  <Assay Organism>
Homo sapiens

>  <Target ID>
56

>  <Target Name>
Androgen Receptor

>  <Target Organism>
Homo sapiens

>  <Target Description>
Target is a single protein chain

>  <Sequence Accession>
P10275

>  <Reference>
Bioorg Med Chem Lett 8 (23), 3365-3370 (1998)

>  <Pubmed ID>
9873735

>  <DOI>
10.1016/s0960-894x(98)00608-8

$$$$
187451
Actelion Java MolfileCreator 1.0

 25 28  0  0  0  0  0  0  0  0999 V2000
    0.0000   -0.0000   -0.0000 O   0  0  0  0  0  0  0  0  0  0  0  0
   -1.3144   -0.7409   -0.0000 C   0  0  0  0  0  0  0  0  0  0  0  0
    1.3025   -0.7409   -0.0000 C   0  0  0  0  0  0  0  0  0  0  0  0
   -1.3264   -2.2346   -0.0000 C   0  0  0  0  0  0  0  0  0  0  0  0
   -2.6289    0.0239   -0.0000 C   0  0  0  0  0  0  0  0  0  0  0  0
    1.2905   -2.2465   -0.0000 C   0  0  0  0  0  0  0  0  0  0  0  0
    2.5930    0.0119   -0.0000 C   0  0  0  0  0  0  0  0  0  0  0  0
   -0.0358   -2.9754   -0.0000 C   0  0  0  0  0  0  0  0  0  0  0  0
   -2.6408   -2.9874   -0.0000 C   0  0  0  0  0  0  0  0  0  0  0  0
   -3.9433   -0.7289   -0.0000 C   0  0  0  0  0  0  0  0  0  0  0  0
    2.5572   -2.9874   -0.0000 C   0  0  0  0  0  0  0  0  0  0  0  0
    2.5691    1.5295   -0.0000 C   0  0  0  0  0  0  0  0  0  0  0  0
   -0.0597   -4.4691   -0.0000 C   0  0  0  0  0  0  0  0  0  0  0  0
   -3.9553   -2.2226   -0.0000 C   0  0  0  0  0  0  0  0  0  0  0  0
    2.5452   -4.4811   -0.0000 C   0  0  0  0  0  0  0  0  0  0  0  0
    3.8477   -2.2346   -0.0000 C   0  0  0  0  0  0  0  0  0  0  0  0
    3.8358    2.3063   -0.0000 C   0  0  0  0  0  0  0  0  0  0  0  0
    1.2308   -5.2219   -0.0000 C   0  0  0  0  0  0  0  0  0  0  0  0
    3.8238   -5.2100   -0.0000 N   0  0  0  0  0  0  0  0  0  0  0  0
    5.1383   -2.9754   -0.0000 C   0  0  0  0  0  0  0  0  0  0  0  0
    3.8358   -0.7170   -0.0000 C   0  0  0  0  0  0  0  0  0  0  0  0
    3.8238    3.8238   -0.0000 C   0  0  0  0  0  0  0  0  0  0  0  0
    5.1144   -4.4691   -0.0000 C   0  0  0  0  0  0  0  0  0  0  0  0
    6.4049   -3.6924   -0.0000 C   0  0  0  0  0  0  0  0  0  0  0  0
    5.0905   -5.9628   -0.0000 C   0  0  0  0  0  0  0  0  0  0  0  0
  1  2  1  0  0  0  0
  1  3  1  0  0  0  0
  2  4  2  0  0  0  0
  2  5  1  0  0  0  0
  3  6  1  0  0  0  0
  3  7  1  0  0  0  0
  4  8  1  0  0  0  0
  4  9  1  0  0  0  0
  5 10  2  0  0  0  0
  6 11  1  0  0  0  0
  7 12  1  0  0  0  0
  8 13  1  0  0  0  0
  9 14  2  0  0  0  0
 11 15  2  0  0  0  0
 11 16  1  0  0  0  0
 12 17  1  0  0  0  0
 13 18  2  0  0  0  0
 15 19  1  0  0  0  0
 16 20  2  0  0  0  0
 16 21  1  0  0  0  0
 17 22  1  0  0  0  0
 19 23  1  0  0  0  0
 23 24  1  0  0  0  0
 23 25  1  0  0  0  0
  6  8  2  0  0  0  0
 10 14  1  0  0  0  0
 15 18  1  0  0  0  0
 20 23  1  0  0  0  0
M  END
>  <MolRegNo>
187451

>  <m>
=

>  <Value>
2046

>  <Unit>
nM

>  <Type>
Ki

>  <pValue>
5.69

>  <Ligand Efficiency>
0.31

>  <Binding Efficiency>
17.06

>  <Surface Efficiency>
26.76

>  <Assay Index>
36202

>  <Assay Category>


>  <Assay Organism>
Homo sapiens

>  <Target ID>
56

>  <Target Name>
Androgen Receptor

>  <Target Organism>
Homo sapiens

>  <Target Description>
Target is a single protein chain

>  <Sequence Accession>
P10275

>  <Reference>
Bioorg Med Chem Lett 8 (23), 3365-3370 (1998)

>  <Pubmed ID>
9873735

>  <DOI>
10.1016/s0960-894x(98)00608-8

$$$$
226190
Actelion Java MolfileCreator 1.0

 30 34  0  0  0  0  0  0  0  0999 V2000
    0.0000   -0.0000   -0.0000 F   0  0  0  0  0  0  0  0  0  0  0  0
   -1.3174    0.7665   -0.0000 C   0  0  0  0  0  0  0  0  0  0  0  0
   -2.6467    0.0240   -0.0000 C   0  0  0  0  0  0  0  0  0  0  0  0
   -1.3294    2.2875   -0.0000 C   0  0  0  0  0  0  0  0  0  0  0  0
   -3.9521    0.7904   -0.0000 C   0  0  0  0  0  0  0  0  0  0  0  0
   -2.6587   -1.4731   -0.0000 C   0  0  0  0  0  0  0  0  0  0  0  0
   -2.6467    3.0539   -0.0000 C   0  0  0  0  0  0  0  0  0  0  0  0
   -3.9761    2.2994   -0.0000 C   0  0  0  0  0  0  0  0  0  0  0  0
   -3.9761   -2.2156   -0.0000 C   0  0  0  0  0  0  0  0  0  0  0  0
   -5.2935    3.0659   -0.0000 F   0  0  0  0  0  0  0  0  0  0  0  0
   -5.2935   -1.4252   -0.0000 O   0  0  0  0  0  0  0  0  0  0  0  0
   -3.9881   -3.7246   -0.0000 C   0  0  0  0  0  0  0  0  0  0  0  0
   -6.6228   -2.1916   -0.0000 C   0  0  0  0  0  0  0  0  0  0  0  0
   -2.6946   -4.4671   -0.0000 C   0  0  0  0  0  0  0  0  0  0  0  0
   -5.3055   -4.4551   -0.0000 C   0  0  0  0  0  0  0  0  0  0  0  0
   -6.6348   -3.7006   -0.0000 C   0  0  0  0  0  0  0  0  0  0  0  0
   -7.9402   -1.4252   -0.0000 C   0  0  0  0  0  0  0  0  0  0  0  0
   -2.7066   -5.9641   -0.0000 C   0  0  0  0  0  0  0  0  0  0  0  0
   -1.4012   -3.7006   -0.0000 C   0  0  0  0  0  0  0  0  0  0  0  0
   -5.3294   -5.9522   -0.0000 C   0  0  0  0  0  0  0  0  0  0  0  0
   -7.9522   -4.4432   -0.0000 C   0  0  0  0  0  0  0  0  0  0  0  0
   -9.2576   -2.1677   -0.0000 C   0  0  0  0  0  0  0  0  0  0  0  0
   -1.4252   -6.7067   -0.0000 N   0  0  0  0  0  0  0  0  0  0  0  0
   -4.0360   -6.7067   -0.0000 C   0  0  0  0  0  0  0  0  0  0  0  0
   -0.1078   -4.4432   -0.0000 C   0  0  0  0  0  0  0  0  0  0  0  0
   -1.4132   -2.1797   -0.0000 C   0  0  0  0  0  0  0  0  0  0  0  0
   -9.2696   -3.6767   -0.0000 C   0  0  0  0  0  0  0  0  0  0  0  0
   -0.1317   -5.9402   -0.0000 C   0  0  0  0  0  0  0  0  0  0  0  0
    1.1737   -5.7606   -0.0000 C   0  0  0  0  0  0  0  0  0  0  0  0
    0.4671   -7.0899   -0.0000 C   0  0  0  0  0  0  0  0  0  0  0  0
  1  2  1  0  0  0  0
  2  3  2  0  0  0  0
  2  4  1  0  0  0  0
  3  5  1  0  0  0  0
  3  6  1  0  0  0  0
  4  7  2  0  0  0  0
  5  8  2  0  0  0  0
  6  9  2  0  0  0  0
  8 10  1  0  0  0  0
  9 11  1  0  0  0  0
  9 12  1  0  0  0  0
 11 13  1  0  0  0  0
 12 14  2  0  0  0  0
 12 15  1  0  0  0  0
 13 16  2  0  0  0  0
 13 17  1  0  0  0  0
 14 18  1  0  0  0  0
 14 19  1  0  0  0  0
 15 20  2  0  0  0  0
 16 21  1  0  0  0  0
 17 22  2  0  0  0  0
 18 23  1  0  0  0  0
 18 24  2  0  0  0  0
 19 25  2  0  0  0  0
 19 26  1  0  0  0  0
 21 27  2  0  0  0  0
 23 28  1  0  0  0  0
 28 29  1  0  0  0  0
 28 30  1  0  0  0  0
  7  8  1  0  0  0  0
 15 16  1  0  0  0  0
 20 24  1  0  0  0  0
 22 27  1  0  0  0  0
 25 28  1  0  0  0  0
M  END
>  <MolRegNo>
226190

>  <m>
=

>  <Value>
887

>  <Unit>
nM

>  <Type>
Ki

>  <pValue>
6.05

>  <Ligand Efficiency>
0.28

>  <Binding Efficiency>
15.08

>  <Surface Efficiency>
28.47

>  <Assay Index>
36205

>  <Assay Category>


>  <Assay Organism>


>  <Target ID>
56

>  <Target Name>
Androgen Receptor

>  <Target Organism>
Homo sapiens

>  <Target Description>
Target is a single protein chain

>  <Sequence Accession>
P10275

>  <Reference>
J Med Chem 41 (22), 4354-4359 (1998)

>  <Pubmed ID>
9784110

>  <DOI>
10.1021/jm980366a

$$$$
226650
Actelion Java MolfileCreator 1.0

 28 32  0  0  0  0  0  0  0  0999 V2000
    0.0000   -0.0000   -0.0000 O   0  0  0  0  0  0  0  0  0  0  0  0
   -1.3326   -0.7683   -0.0000 C   0  0  0  0  0  0  0  0  0  0  0  0
    1.2966   -0.7683   -0.0000 C   0  0  0  0  0  0  0  0  0  0  0  0
   -1.3446   -2.2810   -0.0000 C   0  0  0  0  0  0  0  0  0  0  0  0
   -2.6532   -0.0000   -0.0000 C   0  0  0  0  0  0  0  0  0  0  0  0
    1.2846   -2.2810   -0.0000 C   0  0  0  0  0  0  0  0  0  0  0  0
    2.5931   -0.0000   -0.0000 C   0  0  0  0  0  0  0  0  0  0  0  0
   -0.0360   -3.0133   -0.0000 C   0  0  0  0  0  0  0  0  0  0  0  0
   -2.6652   -3.0253   -0.0000 C   0  0  0  0  0  0  0  0  0  0  0  0
   -3.9737   -0.7443   -0.0000 C   0  0  0  0  0  0  0  0  0  0  0  0
    2.5811   -3.0253   -0.0000 C   0  0  0  0  0  0  0  0  0  0  0  0
    2.5811    1.5247   -0.0000 C   0  0  0  0  0  0  0  0  0  0  0  0
   -0.0600   -4.5140   -0.0000 C   0  0  0  0  0  0  0  0  0  0  0  0
   -3.9857   -2.2570   -0.0000 C   0  0  0  0  0  0  0  0  0  0  0  0
    2.5691   -4.5260   -0.0000 C   0  0  0  0  0  0  0  0  0  0  0  0
    3.8777   -2.2570   -0.0000 C   0  0  0  0  0  0  0  0  0  0  0  0
    1.2726    2.2930   -0.0000 C   0  0  0  0  0  0  0  0  0  0  0  0
    3.8897    2.2930   -0.0000 C   0  0  0  0  0  0  0  0  0  0  0  0
    1.2365   -5.2703   -0.0000 C   0  0  0  0  0  0  0  0  0  0  0  0
    3.8537   -5.2703   -0.0000 N   0  0  0  0  0  0  0  0  0  0  0  0
    5.1743   -3.0013   -0.0000 C   0  0  0  0  0  0  0  0  0  0  0  0
    3.8657   -0.7323   -0.0000 C   0  0  0  0  0  0  0  0  0  0  0  0
    1.2485    3.8057   -0.0000 C   0  0  0  0  0  0  0  0  0  0  0  0
    3.8777    3.8177   -0.0000 C   0  0  0  0  0  0  0  0  0  0  0  0
    5.1502   -4.5020   -0.0000 C   0  0  0  0  0  0  0  0  0  0  0  0
    2.5571    4.5860   -0.0000 C   0  0  0  0  0  0  0  0  0  0  0  0
    5.7505   -5.6545   -0.0000 C   0  0  0  0  0  0  0  0  0  0  0  0
    6.4588   -4.3219   -0.0000 C   0  0  0  0  0  0  0  0  0  0  0  0
  1  2  1  0  0  0  0
  1  3  1  0  0  0  0
  2  4  2  0  0  0  0
  2  5  1  0  0  0  0
  3  6  1  0  0  0  0
  3  7  2  0  0  0  0
  4  8  1  0  0  0  0
  4  9  1  0  0  0  0
  5 10  2  0  0  0  0
  6 11  1  0  0  0  0
  7 12  1  0  0  0  0
  8 13  1  0  0  0  0
  9 14  2  0  0  0  0
 11 15  2  0  0  0  0
 11 16  1  0  0  0  0
 12 17  2  0  0  0  0
 12 18  1  0  0  0  0
 13 19  2  0  0  0  0
 15 20  1  0  0  0  0
 16 21  2  0  0  0  0
 16 22  1  0  0  0  0
 17 23  1  0  0  0  0
 18 24  2  0  0  0  0
 20 25  1  0  0  0  0
 23 26  2  0  0  0  0
 25 27  1  0  0  0  0
 25 28  1  0  0  0  0
  6  8  2  0  0  0  0
 10 14  1  0  0  0  0
 15 19  1  0  0  0  0
 21 25  1  0  0  0  0
 24 26  1  0  0  0  0
M  END
>  <MolRegNo>
226650

>  <m>
=

>  <Value>
2660

>  <Unit>
nM

>  <Type>
Ki

>  <pValue>
5.58

>  <Ligand Efficiency>
0.27

>  <Binding Efficiency>
15.25

>  <Surface Efficiency>
26.22

>  <Assay Index>
36205

>  <Assay Category>


>  <Assay Organism>


>  <Target ID>
56

>  <Target Name>
Androgen Receptor

>  <Target Organism>
Homo sapiens

>  <Target Description>
Target is a single protein chain

>  <Sequence Accession>
P10275

>  <Reference>
J Med Chem 41 (22), 4354-4359 (1998)

>  <Pubmed ID>
9784110

>  <DOI>
10.1021/jm980366a

$$$$
73518
Actelion Java MolfileCreator 1.0

 21 21  0  0  0  0  0  0  0  0999 V2000
    0.0000   -0.0000   -0.0000 Br  0  0  0  0  0  0  0  0  0  0  0  0
    1.2819    0.7645   -0.0000 C   0  0  0  0  0  0  0  0  0  0  0  0
    1.2702    2.2699   -0.0000 C   0  0  0  0  0  0  0  0  0  0  0  0
    2.7520    2.2816   -0.0000 O   0  0  0  0  0  0  0  0  0  0  0  0
    1.2584    3.7752   -0.0000 C   0  0  0  0  0  0  0  0  0  0  0  0
   -0.2352    2.2816   -0.0000 C   0  0  0  0  0  0  0  0  0  0  0  0
   -0.0470    4.5279   -0.0000 O   0  0  0  0  0  0  0  0  0  0  0  0
    2.5404    4.5279   -0.0000 N   0  0  0  0  0  0  0  0  0  0  0  0
    2.5286    6.0333   -0.0000 C   0  0  0  0  0  0  0  0  0  0  0  0
    1.2231    6.7860   -0.0000 C   0  0  0  0  0  0  0  0  0  0  0  0
    3.8105    6.7860   -0.0000 C   0  0  0  0  0  0  0  0  0  0  0  0
    1.2114    8.2914   -0.0000 C   0  0  0  0  0  0  0  0  0  0  0  0
    3.7988    8.2914   -0.0000 C   0  0  0  0  0  0  0  0  0  0  0  0
    2.4933    9.0559   -0.0000 C   0  0  0  0  0  0  0  0  0  0  0  0
   -0.0941    9.0559   -0.0000 C   0  0  0  0  0  0  0  0  0  0  0  0
    2.4815   10.5613   -0.0000 N   0  0  0  0  0  0  0  0  0  0  0  0
   -1.3995    9.8086   -0.0000 F   0  0  0  0  0  0  0  0  0  0  0  0
    0.6351   10.3613   -0.0000 F   0  0  0  0  0  0  0  0  0  0  0  0
   -0.8468    7.7739   -0.0000 F   0  0  0  0  0  0  0  0  0  0  0  0
    1.1761   11.3140   -0.0000 O   0  0  0  0  0  0  0  0  0  0  0  0
    3.7635   11.3140   -0.0000 O   0  0  0  0  0  0  0  0  0  0  0  0
  1  2  1  0  0  0  0
  2  3  1  0  0  0  0
  3  4  1  0  0  0  0
  3  5  1  1  0  0  0
  3  6  1  0  0  0  0
  5  7  2  0  0  0  0
  5  8  1  0  0  0  0
  8  9  1  0  0  0  0
  9 10  2  0  0  0  0
  9 11  1  0  0  0  0
 10 12  1  0  0  0  0
 11 13  2  0  0  0  0
 12 14  2  0  0  0  0
 12 15  1  0  0  0  0
 14 16  1  0  0  0  0
 15 17  1  0  0  0  0
 15 18  1  0  0  0  0
 15 19  1  0  0  0  0
 16 20  2  0  0  0  0
 16 21  1  0  0  0  0
 13 14  1  0  0  0  0
M  CHG  2  16   1  21  -1
M  END
>  <MolRegNo>
73518

>  <m>
=

>  <Value>
0.3

>  <Unit>
nM

>  <Type>
Ki

>  <pValue>
9.52

>  <Ligand Efficiency>
0.62

>  <Binding Efficiency>
25.66

>  <Surface Efficiency>
10.3

>  <Assay Index>
36065

>  <Assay Category>


>  <Assay Organism>
Homo sapiens

>  <Target ID>
56

>  <Target Name>
Androgen Receptor

>  <Target Organism>
Homo sapiens

>  <Target Description>
Target is a single protein chain

>  <Sequence Accession>
P10275

>  <Reference>
J Med Chem 44 (11), 1729-1740 (2001)

>  <Pubmed ID>
11356108

>  <DOI>
10.1021/jm0005353

$$$$
74430
Actelion Java MolfileCreator 1.0

 19 19  0  0  1  0  0  0  0  0999 V2000
    0.0000   -0.0000   -0.0000 Br  0  0  0  0  0  0  0  0  0  0  0  0
   -1.3033    0.7447   -0.0000 C   0  0  0  0  0  0  0  0  0  0  0  0
   -2.5949   -0.0000   -0.0000 C   0  0  0  0  0  0  0  0  0  0  0  0
   -3.8982   -1.1636   -0.0000 O   0  0  0  0  0  0  0  0  0  0  0  0
   -3.8749    0.7680   -0.0000 C   0  0  0  0  0  0  0  0  0  0  0  0
   -1.5593   -1.0356   -0.0000 C   0  0  0  0  0  0  0  0  0  0  0  0
   -3.8866    2.2575   -0.0000 O   0  0  0  0  0  0  0  0  0  0  0  0
   -5.1666    0.0116   -0.0000 N   0  0  0  0  0  0  0  0  0  0  0  0
   -6.4466    0.7564   -0.0000 C   0  0  0  0  0  0  0  0  0  0  0  0
   -7.7499    0.0349   -0.0000 C   0  0  0  0  0  0  0  0  0  0  0  0
   -6.4582    2.2458   -0.0000 C   0  0  0  0  0  0  0  0  0  0  0  0
   -9.0182    0.7796   -0.0000 C   0  0  0  0  0  0  0  0  0  0  0  0
   -7.7615    2.9906   -0.0000 C   0  0  0  0  0  0  0  0  0  0  0  0
   -9.0299    2.2575   -0.0000 C   0  0  0  0  0  0  0  0  0  0  0  0
  -10.3215    0.0698   -0.0000 C   0  0  0  0  0  0  0  0  0  0  0  0
  -10.3332    3.0022   -0.0000 N   0  0  0  0  0  0  0  0  0  0  0  0
   -9.6117   -1.1986   -0.0000 F   0  0  0  0  0  0  0  0  0  0  0  0
  -11.6248   -0.6516   -0.0000 F   0  0  0  0  0  0  0  0  0  0  0  0
  -11.4037    1.1287   -0.0000 F   0  0  0  0  0  0  0  0  0  0  0  0
  1  2  1  0  0  0  0
  2  3  1  0  0  0  0
  3  4  1  6  0  0  0
  3  5  1  0  0  0  0
  3  6  1  0  0  0  0
  5  7  2  0  0  0  0
  5  8  1  0  0  0  0
  8  9  1  0  0  0  0
  9 10  2  0  0  0  0
  9 11  1  0  0  0  0
 10 12  1  0  0  0  0
 11 13  2  0  0  0  0
 12 14  2  0  0  0  0
 12 15  1  0  0  0  0
 14 16  1  0  0  0  0
 15 17  1  0  0  0  0
 15 18  1  0  0  0  0
 15 19  1  0  0  0  0
 13 14  1  0  0  0  0
M  END
>  <MolRegNo>
74430

>  <m>
=

>  <Value>
80.9

>  <Unit>
nM

>  <Type>
Ki

>  <pValue>
7.09

>  <Ligand Efficiency>
0.51

>  <Binding Efficiency>
20.79

>  <Surface Efficiency>
9.41

>  <Assay Index>
36065

>  <Assay Category>


>  <Assay Organism>
Homo sapiens

>  <Target ID>
56

>  <Target Name>
Androgen Receptor

>  <Target Organism>
Homo sapiens

>  <Target Description>
Target is a single protein chain

>  <Sequence Accession>
P10275

>  <Reference>
J Med Chem 44 (11), 1729-1740 (2001)

>  <Pubmed ID>
11356108

>  <DOI>
10.1021/jm0005353

$$$$
49963
Actelion Java MolfileCreator 1.0

 29 33  0  0  0  0  0  0  0  0999 V2000
    0.0000   -0.0000   -0.0000 F   0  0  0  0  0  0  0  0  0  0  0  0
   -1.3123   -0.7330   -0.0000 C   0  0  0  0  0  0  0  0  0  0  0  0
   -1.3241   -2.2108   -0.0000 C   0  0  0  0  0  0  0  0  0  0  0  0
   -2.6246    0.0473   -0.0000 C   0  0  0  0  0  0  0  0  0  0  0  0
   -2.6482   -2.9438   -0.0000 C   0  0  0  0  0  0  0  0  0  0  0  0
   -3.9487   -0.7093   -0.0000 C   0  0  0  0  0  0  0  0  0  0  0  0
   -3.9605   -2.1871   -0.0000 C   0  0  0  0  0  0  0  0  0  0  0  0
   -2.6600   -4.4334   -0.0000 C   0  0  0  0  0  0  0  0  0  0  0  0
   -3.9960   -5.1664   -0.0000 C   0  0  0  0  0  0  0  0  0  0  0  0
   -5.3082   -4.3979   -0.0000 O   0  0  0  0  0  0  0  0  0  0  0  0
   -4.0078   -6.6560   -0.0000 C   0  0  0  0  0  0  0  0  0  0  0  0
   -6.6205   -5.1427   -0.0000 C   0  0  0  0  0  0  0  0  0  0  0  0
   -2.7191   -7.4008   -0.0000 C   0  0  0  0  0  0  0  0  0  0  0  0
   -5.3201   -7.4008   -0.0000 C   0  0  0  0  0  0  0  0  0  0  0  0
   -6.6323   -6.6323   -0.0000 C   0  0  0  0  0  0  0  0  0  0  0  0
   -7.9328   -4.3861   -0.0000 C   0  0  0  0  0  0  0  0  0  0  0  0
   -2.7310   -8.8904   -0.0000 C   0  0  0  0  0  0  0  0  0  0  0  0
   -1.4305   -6.6560   -0.0000 C   0  0  0  0  0  0  0  0  0  0  0  0
   -5.3437   -8.8786   -0.0000 C   0  0  0  0  0  0  0  0  0  0  0  0
   -7.9446   -7.3772   -0.0000 C   0  0  0  0  0  0  0  0  0  0  0  0
   -9.2451   -5.1191   -0.0000 C   0  0  0  0  0  0  0  0  0  0  0  0
   -1.4542   -9.6234   -0.0000 N   0  0  0  0  0  0  0  0  0  0  0  0
   -4.0432   -9.6234   -0.0000 C   0  0  0  0  0  0  0  0  0  0  0  0
   -0.1419   -7.4008   -0.0000 C   0  0  0  0  0  0  0  0  0  0  0  0
   -1.4423   -5.1427   -0.0000 C   0  0  0  0  0  0  0  0  0  0  0  0
   -9.2569   -6.6205   -0.0000 C   0  0  0  0  0  0  0  0  0  0  0  0
   -0.1655   -8.8786   -0.0000 C   0  0  0  0  0  0  0  0  0  0  0  0
    1.3241   -8.8668   -0.0000 C   0  0  0  0  0  0  0  0  0  0  0  0
   -0.1892  -10.3682   -0.0000 C   0  0  0  0  0  0  0  0  0  0  0  0
  1  2  1  0  0  0  0
  2  3  2  0  0  0  0
  2  4  1  0  0  0  0
  3  5  1  0  0  0  0
  4  6  2  0  0  0  0
  5  7  2  0  0  0  0
  5  8  1  0  0  0  0
  8  9  2  0  0  0  0
  9 10  1  0  0  0  0
  9 11  1  0  0  0  0
 10 12  1  0  0  0  0
 11 13  2  0  0  0  0
 11 14  1  0  0  0  0
 12 15  2  0  0  0  0
 12 16  1  0  0  0  0
 13 17  1  0  0  0  0
 13 18  1  0  0  0  0
 14 19  2  0  0  0  0
 15 20  1  0  0  0  0
 16 21  2  0  0  0  0
 17 22  1  0  0  0  0
 17 23  2  0  0  0  0
 18 24  2  0  0  0  0
 18 25  1  0  0  0  0
 20 26  2  0  0  0  0
 22 27  1  0  0  0  0
 27 28  1  0  0  0  0
 27 29  1  0  0  0  0
  6  7  1  0  0  0  0
 14 15  1  0  0  0  0
 19 23  1  0  0  0  0
 21 26  1  0  0  0  0
 24 27  1  0  0  0  0
M  END
>  <MolRegNo>
49963

>  <m>
=

>  <Value>
798

>  <Unit>
nM

>  <Type>
Ki

>  <pValue>
6.1

>  <Ligand Efficiency>
0.29

>  <Binding Efficiency>
15.9

>  <Surface Efficiency>
28.68

>  <Assay Index>
36205

>  <Assay Category>


>  <Assay Organism>


>  <Target ID>
56

>  <Target Name>
Androgen Receptor

>  <Target Organism>
Homo sapiens

>  <Target Description>
Target is a single protein chain

>  <Sequence Accession>
P10275

>  <Reference>
J Med Chem 41 (22), 4354-4359 (1998)

>  <Pubmed ID>
9784110

>  <DOI>
10.1021/jm980366a

$$$$
100045
Actelion Java MolfileCreator 1.0

 29 33  0  0  0  0  0  0  0  0999 V2000
    0.0000   -0.0000   -0.0000 O   0  0  0  0  0  0  0  0  0  0  0  0
   -1.3127   -0.7280   -0.0000 C   0  0  0  0  0  0  0  0  0  0  0  0
    1.2888   -0.7518   -0.0000 C   0  0  0  0  0  0  0  0  0  0  0  0
   -1.3366   -2.2197   -0.0000 C   0  0  0  0  0  0  0  0  0  0  0  0
   -2.6254    0.0358   -0.0000 C   0  0  0  0  0  0  0  0  0  0  0  0
    1.2769   -2.2435   -0.0000 C   0  0  0  0  0  0  0  0  0  0  0  0
    2.5777    0.0119   -0.0000 C   0  0  0  0  0  0  0  0  0  0  0  0
   -0.0358   -2.9596   -0.0000 C   0  0  0  0  0  0  0  0  0  0  0  0
   -2.6493   -2.9596   -0.0000 C   0  0  0  0  0  0  0  0  0  0  0  0
   -3.9381   -0.7041   -0.0000 C   0  0  0  0  0  0  0  0  0  0  0  0
    2.5658   -2.9954   -0.0000 C   0  0  0  0  0  0  0  0  0  0  0  0
    2.5658    1.5275   -0.0000 C   0  0  0  0  0  0  0  0  0  0  0  0
   -0.0716   -4.4513   -0.0000 C   0  0  0  0  0  0  0  0  0  0  0  0
   -3.9501   -2.1958   -0.0000 C   0  0  0  0  0  0  0  0  0  0  0  0
    2.5538   -4.4632   -0.0000 C   0  0  0  0  0  0  0  0  0  0  0  0
    3.8427   -2.2316   -0.0000 C   0  0  0  0  0  0  0  0  0  0  0  0
    3.8665    2.2913   -0.0000 C   0  0  0  0  0  0  0  0  0  0  0  0
    1.2530    2.2913   -0.0000 C   0  0  0  0  0  0  0  0  0  0  0  0
    1.2172   -5.1912   -0.0000 C   0  0  0  0  0  0  0  0  0  0  0  0
    3.8188   -5.2031   -0.0000 N   0  0  0  0  0  0  0  0  0  0  0  0
    5.1196   -2.9715   -0.0000 C   0  0  0  0  0  0  0  0  0  0  0  0
    3.8307   -0.7160   -0.0000 C   0  0  0  0  0  0  0  0  0  0  0  0
    3.8546    3.8188   -0.0000 C   0  0  0  0  0  0  0  0  0  0  0  0
    5.1673    1.5514   -0.0000 C   0  0  0  0  0  0  0  0  0  0  0  0
    1.2411    3.8188   -0.0000 C   0  0  0  0  0  0  0  0  0  0  0  0
    5.1076   -4.4632   -0.0000 C   0  0  0  0  0  0  0  0  0  0  0  0
    2.5300    4.5826   -0.0000 C   0  0  0  0  0  0  0  0  0  0  0  0
    5.0957   -5.9549   -0.0000 C   0  0  0  0  0  0  0  0  0  0  0  0
    6.3965   -3.6875   -0.0000 C   0  0  0  0  0  0  0  0  0  0  0  0
  1  2  1  0  0  0  0
  1  3  1  0  0  0  0
  2  4  2  0  0  0  0
  2  5  1  0  0  0  0
  3  6  1  0  0  0  0
  3  7  2  0  0  0  0
  4  8  1  0  0  0  0
  4  9  1  0  0  0  0
  5 10  2  0  0  0  0
  6 11  1  0  0  0  0
  7 12  1  0  0  0  0
  8 13  1  0  0  0  0
  9 14  2  0  0  0  0
 11 15  2  0  0  0  0
 11 16  1  0  0  0  0
 12 17  2  0  0  0  0
 12 18  1  0  0  0  0
 13 19  2  0  0  0  0
 15 20  1  0  0  0  0
 16 21  2  0  0  0  0
 16 22  1  0  0  0  0
 17 23  1  0  0  0  0
 17 24  1  0  0  0  0
 18 25  2  0  0  0  0
 20 26  1  0  0  0  0
 23 27  2  0  0  0  0
 26 28  1  0  0  0  0
 26 29  1  0  0  0  0
  6  8  2  0  0  0  0
 10 14  1  0  0  0  0
 15 19  1  0  0  0  0
 21 26  1  0  0  0  0
 25 27  1  0  0  0  0
M  END
>  <MolRegNo>
100045

>  <m>
=

>  <Value>
844

>  <Unit>
nM

>  <Type>
Ki

>  <pValue>
6.07

>  <Ligand Efficiency>
0.29

>  <Binding Efficiency>
16

>  <Surface Efficiency>
28.57

>  <Assay Index>
36205

>  <Assay Category>


>  <Assay Organism>


>  <Target ID>
56

>  <Target Name>
Androgen Receptor

>  <Target Organism>
Homo sapiens

>  <Target Description>
Target is a single protein chain

>  <Sequence Accession>
P10275

>  <Reference>
J Med Chem 41 (22), 4354-4359 (1998)

>  <Pubmed ID>
9784110

>  <DOI>
10.1021/jm980366a

$$$$
74066
Actelion Java MolfileCreator 1.0

 21 21  0  0  1  0  0  0  0  0999 V2000
    0.0000   -0.0000   -0.0000 Br  0  0  0  0  0  0  0  0  0  0  0  0
   -1.2542    0.7316   -0.0000 C   0  0  0  0  0  0  0  0  0  0  0  0
   -2.5234    0.0299   -0.0000 C   0  0  0  0  0  0  0  0  0  0  0  0
   -3.5537   -0.9705   -0.0000 O   0  0  0  0  0  0  0  0  0  0  0  0
   -3.7627    0.7615   -0.0000 C   0  0  0  0  0  0  0  0  0  0  0  0
   -1.5230   -0.9705   -0.0000 C   0  0  0  0  0  0  0  0  0  0  0  0
   -3.7926    2.2248   -0.0000 O   0  0  0  0  0  0  0  0  0  0  0  0
   -5.0319    0.0448   -0.0000 N   0  0  0  0  0  0  0  0  0  0  0  0
   -6.3011    0.7764   -0.0000 C   0  0  0  0  0  0  0  0  0  0  0  0
   -7.5404    0.0896   -0.0000 C   0  0  0  0  0  0  0  0  0  0  0  0
   -6.3160    2.2248   -0.0000 C   0  0  0  0  0  0  0  0  0  0  0  0
   -8.7946    0.8212   -0.0000 C   0  0  0  0  0  0  0  0  0  0  0  0
   -7.5553    2.9415   -0.0000 C   0  0  0  0  0  0  0  0  0  0  0  0
   -8.8095    2.2546   -0.0000 C   0  0  0  0  0  0  0  0  0  0  0  0
  -10.0638    0.1195   -0.0000 C   0  0  0  0  0  0  0  0  0  0  0  0
  -10.3773    3.2849   -0.0000 N   0  0  0  0  0  0  0  0  0  0  0  0
   -9.3769   -1.0900   -0.0000 F   0  0  0  0  0  0  0  0  0  0  0  0
  -11.3479   -0.5674   -0.0000 F   0  0  0  0  0  0  0  0  0  0  0  0
  -11.0941    1.1497   -0.0000 F   0  0  0  0  0  0  0  0  0  0  0  0
  -12.2886    3.3745   -0.0000 O   0  0  0  0  0  0  0  0  0  0  0  0
  -10.1235    5.0319   -0.0000 O   0  0  0  0  0  0  0  0  0  0  0  0
  1  2  1  0  0  0  0
  2  3  1  0  0  0  0
  3  4  1  1  0  0  0
  3  5  1  0  0  0  0
  3  6  1  0  0  0  0
  5  7  2  0  0  0  0
  5  8  1  0  0  0  0
  8  9  1  0  0  0  0
  9 10  2  0  0  0  0
  9 11  1  0  0  0  0
 10 12  1  0  0  0  0
 11 13  2  0  0  0  0
 12 14  2  0  0  0  0
 12 15  1  0  0  0  0
 14 16  1  0  0  0  0
 15 17  1  0  0  0  0
 15 18  1  0  0  0  0
 15 19  1  0  0  0  0
 16 20  2  0  0  0  0
 16 21  1  0  0  0  0
 13 14  1  0  0  0  0
M  CHG  2  16   1  21  -1
M  END
>  <MolRegNo>
74066

>  <m>
=

>  <Value>
16.5

>  <Unit>
nM

>  <Type>
Ki

>  <pValue>
7.78

>  <Ligand Efficiency>
0.51

>  <Binding Efficiency>
20.97

>  <Surface Efficiency>
8.42

>  <Assay Index>
36065

>  <Assay Category>


>  <Assay Organism>
Homo sapiens

>  <Target ID>
56

>  <Target Name>
Androgen Receptor

>  <Target Organism>
Homo sapiens

>  <Target Description>
Target is a single protein chain

>  <Sequence Accession>
P10275

>  <Reference>
J Med Chem 44 (11), 1729-1740 (2001)

>  <Pubmed ID>
11356108

>  <DOI>
10.1021/jm0005353

$$$$
160049
Actelion Java MolfileCreator 1.0

 28 32  0  0  0  0  0  0  0  0999 V2000
    0.0000   -0.0000   -0.0000 Cl  0  0  0  0  0  0  0  0  0  0  0  0
    1.3211    0.7686   -0.0000 C   0  0  0  0  0  0  0  0  0  0  0  0
    2.6302    0.0240   -0.0000 C   0  0  0  0  0  0  0  0  0  0  0  0
    1.3091    2.3059   -0.0000 C   0  0  0  0  0  0  0  0  0  0  0  0
    3.9393    0.8167   -0.0000 C   0  0  0  0  0  0  0  0  0  0  0  0
    2.6182    3.0986   -0.0000 C   0  0  0  0  0  0  0  0  0  0  0  0
    3.9393    2.3539   -0.0000 C   0  0  0  0  0  0  0  0  0  0  0  0
    5.2483    0.0721   -0.0000 C   0  0  0  0  0  0  0  0  0  0  0  0
    5.2483    3.1226   -0.0000 O   0  0  0  0  0  0  0  0  0  0  0  0
    6.5574    0.8287   -0.0000 C   0  0  0  0  0  0  0  0  0  0  0  0
    5.2123   -1.4412   -0.0000 C   0  0  0  0  0  0  0  0  0  0  0  0
    6.5574    2.3780   -0.0000 C   0  0  0  0  0  0  0  0  0  0  0  0
    7.8665    0.0841   -0.0000 C   0  0  0  0  0  0  0  0  0  0  0  0
    6.5214   -2.2098   -0.0000 C   0  0  0  0  0  0  0  0  0  0  0  0
    7.8785    3.1346   -0.0000 C   0  0  0  0  0  0  0  0  0  0  0  0
    7.8545   -1.4172   -0.0000 C   0  0  0  0  0  0  0  0  0  0  0  0
    9.0555    0.8527   -0.0000 C   0  0  0  0  0  0  0  0  0  0  0  0
    9.1396    2.3780   -0.0000 C   0  0  0  0  0  0  0  0  0  0  0  0
    7.8665    4.6599   -0.0000 C   0  0  0  0  0  0  0  0  0  0  0  0
    9.1516   -2.1618   -0.0000 N   0  0  0  0  0  0  0  0  0  0  0  0
   10.4487    0.1081   -0.0000 C   0  0  0  0  0  0  0  0  0  0  0  0
    9.0915    1.8375   -0.0000 C   0  0  0  0  0  0  0  0  0  0  0  0
   10.4847    3.1466   -0.0000 C   0  0  0  0  0  0  0  0  0  0  0  0
    9.1756    5.4285   -0.0000 C   0  0  0  0  0  0  0  0  0  0  0  0
   10.4366   -1.3932   -0.0000 C   0  0  0  0  0  0  0  0  0  0  0  0
   10.4847    4.6839   -0.0000 C   0  0  0  0  0  0  0  0  0  0  0  0
   11.9499   -1.3811   -0.0000 C   0  0  0  0  0  0  0  0  0  0  0  0
   10.8210   -2.8584   -0.0000 C   0  0  0  0  0  0  0  0  0  0  0  0
  1  2  1  0  0  0  0
  2  3  2  0  0  0  0
  2  4  1  0  0  0  0
  3  5  1  0  0  0  0
  4  6  2  0  0  0  0
  5  7  2  0  0  0  0
  5  8  1  0  0  0  0
  7  9  1  0  0  0  0
  8 10  2  0  0  0  0
  8 11  1  0  0  0  0
  9 12  1  0  0  0  0
 10 13  1  0  0  0  0
 11 14  2  0  0  0  0
 12 15  1  0  0  0  0
 13 16  2  0  0  0  0
 13 17  1  0  0  0  0
 15 18  2  0  0  0  0
 15 19  1  0  0  0  0
 16 20  1  0  0  0  0
 17 21  2  0  0  0  0
 17 22  1  0  0  0  0
 18 23  1  0  0  0  0
 19 24  2  0  0  0  0
 20 25  1  0  0  0  0
 23 26  2  0  0  0  0
 25 27  1  0  0  0  0
 25 28  1  0  0  0  0
  6  7  1  0  0  0  0
 10 12  1  0  0  0  0
 14 16  1  0  0  0  0
 21 25  1  0  0  0  0
 24 26  1  0  0  0  0
M  END
>  <MolRegNo>
160049

>  <m>
=

>  <Value>
1400

>  <Unit>
nM

>  <Type>
Ki

>  <pValue>
5.85

>  <Ligand Efficiency>
0.29

>  <Binding Efficiency>
15.09

>  <Surface Efficiency>
27.53

>  <Assay Index>
36208

>  <Assay Category>


>  <Assay Organism>
Homo sapiens

>  <Target ID>
56

>  <Target Name>
Androgen Receptor

>  <Target Organism>
Homo sapiens

>  <Target Description>
Target is a single protein chain

>  <Sequence Accession>
P10275

>  <Reference>
J Med Chem 44 (18), 2879-2885 (2001)

>  <Pubmed ID>
11520196

>  <DOI>
10.1021/jm010228c

$$$$
159546
Actelion Java MolfileCreator 1.0

 29 33  0  0  0  0  0  0  0  0999 V2000
    0.0000   -0.0000   -0.0000 O   0  0  0  0  0  0  0  0  0  0  0  0
   -1.3306   -0.7500   -0.0000 C   0  0  0  0  0  0  0  0  0  0  0  0
    1.3064   -0.7500   -0.0000 C   0  0  0  0  0  0  0  0  0  0  0  0
   -1.3548   -2.2620   -0.0000 C   0  0  0  0  0  0  0  0  0  0  0  0
   -2.6612    0.0242   -0.0000 C   0  0  0  0  0  0  0  0  0  0  0  0
    1.2943   -2.2741   -0.0000 C   0  0  0  0  0  0  0  0  0  0  0  0
    2.6249    0.0121   -0.0000 C   0  0  0  0  0  0  0  0  0  0  0  0
   -2.6854   -3.0241   -0.0000 C   0  0  0  0  0  0  0  0  0  0  0  0
   -0.0484   -3.0120   -0.0000 C   0  0  0  0  0  0  0  0  0  0  0  0
   -3.9918   -0.7379   -0.0000 C   0  0  0  0  0  0  0  0  0  0  0  0
    2.6007   -3.0241   -0.0000 C   0  0  0  0  0  0  0  0  0  0  0  0
    2.6128    1.5362   -0.0000 C   0  0  0  0  0  0  0  0  0  0  0  0
    3.8829   -0.7500   -0.0000 C   0  0  0  0  0  0  0  0  0  0  0  0
   -2.6854   -4.5361   -0.0000 O   0  0  0  0  0  0  0  0  0  0  0  0
   -4.0160   -2.2499   -0.0000 C   0  0  0  0  0  0  0  0  0  0  0  0
   -0.0847   -4.5240   -0.0000 C   0  0  0  0  0  0  0  0  0  0  0  0
    2.5886   -4.5119   -0.0000 C   0  0  0  0  0  0  0  0  0  0  0  0
    3.7862   -2.2620   -0.0000 C   0  0  0  0  0  0  0  0  0  0  0  0
    3.9192    2.3104   -0.0000 C   0  0  0  0  0  0  0  0  0  0  0  0
    5.2256    0.0242   -0.0000 C   0  0  0  0  0  0  0  0  0  0  0  0
   -4.0160   -5.2982   -0.0000 C   0  0  0  0  0  0  0  0  0  0  0  0
    1.2217   -5.2861   -0.0000 C   0  0  0  0  0  0  0  0  0  0  0  0
    3.8829   -5.2619   -0.0000 N   0  0  0  0  0  0  0  0  0  0  0  0
    5.1772   -2.9999   -0.0000 C   0  0  0  0  0  0  0  0  0  0  0  0
    3.8224   -1.2822   -0.0000 C   0  0  0  0  0  0  0  0  0  0  0  0
    5.2256    1.5604   -0.0000 C   0  0  0  0  0  0  0  0  0  0  0  0
    5.1651   -4.4877   -0.0000 C   0  0  0  0  0  0  0  0  0  0  0  0
    6.6772   -4.4757   -0.0000 C   0  0  0  0  0  0  0  0  0  0  0  0
    5.5401   -5.9514   -0.0000 C   0  0  0  0  0  0  0  0  0  0  0  0
  1  2  1  0  0  0  0
  1  3  1  0  0  0  0
  2  4  2  0  0  0  0
  2  5  1  0  0  0  0
  3  6  1  0  0  0  0
  3  7  1  0  0  0  0
  4  8  1  0  0  0  0
  4  9  1  0  0  0  0
  5 10  2  0  0  0  0
  6 11  1  0  0  0  0
  7 12  2  0  0  0  0
  7 13  1  0  0  0  0
  8 14  1  0  0  0  0
  8 15  2  0  0  0  0
  9 16  1  0  0  0  0
 11 17  2  0  0  0  0
 11 18  1  0  0  0  0
 12 19  1  0  0  0  0
 13 20  2  0  0  0  0
 14 21  1  0  0  0  0
 16 22  2  0  0  0  0
 17 23  1  0  0  0  0
 18 24  2  0  0  0  0
 18 25  1  0  0  0  0
 19 26  2  0  0  0  0
 23 27  1  0  0  0  0
 27 28  1  0  0  0  0
 27 29  1  0  0  0  0
  6  9  2  0  0  0  0
 10 15  1  0  0  0  0
 17 22  1  0  0  0  0
 20 26  1  0  0  0  0
 24 27  1  0  0  0  0
M  END
>  <MolRegNo>
159546

>  <m>
=

>  <Value>
2660

>  <Unit>
nM

>  <Type>
Ki

>  <pValue>
5.58

>  <Ligand Efficiency>
0.26

>  <Binding Efficiency>
14.54

>  <Surface Efficiency>
18.29

>  <Assay Index>
36208

>  <Assay Category>


>  <Assay Organism>
Homo sapiens

>  <Target ID>
56

>  <Target Name>
Androgen Receptor

>  <Target Organism>
Homo sapiens

>  <Target Description>
Target is a single protein chain

>  <Sequence Accession>
P10275

>  <Reference>
J Med Chem 44 (18), 2879-2885 (2001)

>  <Pubmed ID>
11520196

>  <DOI>
10.1021/jm010228c

$$$$
158797
Actelion Java MolfileCreator 1.0

 33 37  0  0  0  0  0  0  0  0999 V2000
    0.0000   -0.0000   -0.0000 F   0  0  0  0  0  0  0  0  0  0  0  0
    0.0000    1.5292   -0.0000 C   0  0  0  0  0  0  0  0  0  0  0  0
    1.3005    2.2878   -0.0000 F   0  0  0  0  0  0  0  0  0  0  0  0
   -1.0958    0.4816   -0.0000 F   0  0  0  0  0  0  0  0  0  0  0  0
   -1.3245    2.3119   -0.0000 C   0  0  0  0  0  0  0  0  0  0  0  0
   -2.6852    1.5654   -0.0000 C   0  0  0  0  0  0  0  0  0  0  0  0
   -1.3245    3.8412   -0.0000 C   0  0  0  0  0  0  0  0  0  0  0  0
   -3.9616    2.3480   -0.0000 C   0  0  0  0  0  0  0  0  0  0  0  0
   -2.6491    4.6118   -0.0000 C   0  0  0  0  0  0  0  0  0  0  0  0
   -3.9736    3.8652   -0.0000 C   0  0  0  0  0  0  0  0  0  0  0  0
   -5.2981    1.6135   -0.0000 C   0  0  0  0  0  0  0  0  0  0  0  0
   -6.6227    2.3842   -0.0000 O   0  0  0  0  0  0  0  0  0  0  0  0
   -5.3102    0.0963   -0.0000 C   0  0  0  0  0  0  0  0  0  0  0  0
   -7.9472    1.6376   -0.0000 C   0  0  0  0  0  0  0  0  0  0  0  0
   -4.0097   -0.6502   -0.0000 C   0  0  0  0  0  0  0  0  0  0  0  0
   -6.6347   -0.6382   -0.0000 C   0  0  0  0  0  0  0  0  0  0  0  0
   -7.9713    0.1325   -0.0000 C   0  0  0  0  0  0  0  0  0  0  0  0
   -9.2717    2.4082   -0.0000 C   0  0  0  0  0  0  0  0  0  0  0  0
   -4.0218   -2.1313   -0.0000 C   0  0  0  0  0  0  0  0  0  0  0  0
   -2.8297    0.1084   -0.0000 C   0  0  0  0  0  0  0  0  0  0  0  0
   -6.6708   -2.1433   -0.0000 C   0  0  0  0  0  0  0  0  0  0  0  0
   -9.2958   -0.6261   -0.0000 C   0  0  0  0  0  0  0  0  0  0  0  0
  -10.5963    1.6496   -0.0000 C   0  0  0  0  0  0  0  0  0  0  0  0
   -2.7334   -2.8779   -0.0000 N   0  0  0  0  0  0  0  0  0  0  0  0
   -5.3583   -2.8899   -0.0000 C   0  0  0  0  0  0  0  0  0  0  0  0
   -1.4449   -0.6261   -0.0000 C   0  0  0  0  0  0  0  0  0  0  0  0
   -2.7936    1.0837   -0.0000 C   0  0  0  0  0  0  0  0  0  0  0  0
   -9.2958   -2.1313   -0.0000 O   0  0  0  0  0  0  0  0  0  0  0  0
  -10.6204    0.1445   -0.0000 C   0  0  0  0  0  0  0  0  0  0  0  0
   -1.4570   -2.1072   -0.0000 C   0  0  0  0  0  0  0  0  0  0  0  0
  -10.6204   -2.8899   -0.0000 C   0  0  0  0  0  0  0  0  0  0  0  0
    0.0482   -2.0952   -0.0000 C   0  0  0  0  0  0  0  0  0  0  0  0
   -1.0837   -3.5642   -0.0000 C   0  0  0  0  0  0  0  0  0  0  0  0
  1  2  1  0  0  0  0
  2  3  1  0  0  0  0
  2  4  1  0  0  0  0
  2  5  1  0  0  0  0
  5  6  2  0  0  0  0
  5  7  1  0  0  0  0
  6  8  1  0  0  0  0
  7  9  2  0  0  0  0
  8 10  2  0  0  0  0
  8 11  1  0  0  0  0
 11 12  1  0  0  0  0
 11 13  1  0  0  0  0
 12 14  1  0  0  0  0
 13 15  2  0  0  0  0
 13 16  1  0  0  0  0
 14 17  2  0  0  0  0
 14 18  1  0  0  0  0
 15 19  1  0  0  0  0
 15 20  1  0  0  0  0
 16 21  2  0  0  0  0
 17 22  1  0  0  0  0
 18 23  2  0  0  0  0
 19 24  1  0  0  0  0
 19 25  2  0  0  0  0
 20 26  2  0  0  0  0
 20 27  1  0  0  0  0
 22 28  1  0  0  0  0
 22 29  2  0  0  0  0
 24 30  1  0  0  0  0
 28 31  1  0  0  0  0
 30 32  1  0  0  0  0
 30 33  1  0  0  0  0
  9 10  1  0  0  0  0
 16 17  1  0  0  0  0
 21 25  1  0  0  0  0
 23 29  1  0  0  0  0
 26 30  1  0  0  0  0
M  END
>  <MolRegNo>
158797

>  <m>
=

>  <Value>
3360

>  <Unit>
nM

>  <Type>
Ki

>  <pValue>
5.47

>  <Ligand Efficiency>
0.23

>  <Binding Efficiency>
12.12

>  <Surface Efficiency>
17.95

>  <Assay Index>
36208

>  <Assay Category>


>  <Assay Organism>
Homo sapiens

>  <Target ID>
56

>  <Target Name>
Androgen Receptor

>  <Target Organism>
Homo sapiens

>  <Target Description>
Target is a single protein chain

>  <Sequence Accession>
P10275

>  <Reference>
J Med Chem 44 (18), 2879-2885 (2001)

>  <Pubmed ID>
11520196

>  <DOI>
10.1021/jm010228c

$$$$
159285
Actelion Java MolfileCreator 1.0

 33 37  0  0  0  0  0  0  0  0999 V2000
    0.0000   -0.0000   -0.0000 S   0  0  0  0  0  0  0  0  0  0  0  0
   -1.3236    0.7821   -0.0000 C   0  0  0  0  0  0  0  0  0  0  0  0
   -0.0241   -1.5041   -0.0000 C   0  0  0  0  0  0  0  0  0  0  0  0
   -2.6472    0.0361   -0.0000 O   0  0  0  0  0  0  0  0  0  0  0  0
   -3.9708    0.8182   -0.0000 C   0  0  0  0  0  0  0  0  0  0  0  0
   -5.3305    0.0842   -0.0000 C   0  0  0  0  0  0  0  0  0  0  0  0
   -3.9708    2.3584   -0.0000 C   0  0  0  0  0  0  0  0  0  0  0  0
   -6.6059    0.8543   -0.0000 C   0  0  0  0  0  0  0  0  0  0  0  0
   -5.2944    3.1285   -0.0000 C   0  0  0  0  0  0  0  0  0  0  0  0
   -6.6180    2.3825   -0.0000 C   0  0  0  0  0  0  0  0  0  0  0  0
   -7.9416    0.1203   -0.0000 C   0  0  0  0  0  0  0  0  0  0  0  0
   -9.2652    0.9025   -0.0000 O   0  0  0  0  0  0  0  0  0  0  0  0
   -7.9536   -1.3838   -0.0000 C   0  0  0  0  0  0  0  0  0  0  0  0
  -10.5888    0.1444   -0.0000 C   0  0  0  0  0  0  0  0  0  0  0  0
   -6.6541   -2.1298   -0.0000 C   0  0  0  0  0  0  0  0  0  0  0  0
   -9.2772   -2.1178   -0.0000 C   0  0  0  0  0  0  0  0  0  0  0  0
  -10.6128   -1.3597   -0.0000 C   0  0  0  0  0  0  0  0  0  0  0  0
  -11.9123    0.9145   -0.0000 C   0  0  0  0  0  0  0  0  0  0  0  0
   -6.6661   -3.6218   -0.0000 C   0  0  0  0  0  0  0  0  0  0  0  0
   -5.4749   -1.3717   -0.0000 C   0  0  0  0  0  0  0  0  0  0  0  0
   -9.3133   -3.5978   -0.0000 C   0  0  0  0  0  0  0  0  0  0  0  0
  -11.9364   -2.1178   -0.0000 C   0  0  0  0  0  0  0  0  0  0  0  0
  -13.2359    0.1685   -0.0000 C   0  0  0  0  0  0  0  0  0  0  0  0
   -5.3906   -4.3558   -0.0000 N   0  0  0  0  0  0  0  0  0  0  0  0
   -8.0017   -4.3799   -0.0000 C   0  0  0  0  0  0  0  0  0  0  0  0
   -4.0670   -2.1178   -0.0000 C   0  0  0  0  0  0  0  0  0  0  0  0
   -5.4388   -0.3971   -0.0000 C   0  0  0  0  0  0  0  0  0  0  0  0
  -11.9364   -3.6218   -0.0000 O   0  0  0  0  0  0  0  0  0  0  0  0
  -13.2600   -1.3477   -0.0000 C   0  0  0  0  0  0  0  0  0  0  0  0
   -4.0911   -3.5978   -0.0000 C   0  0  0  0  0  0  0  0  0  0  0  0
  -13.2600   -4.3679   -0.0000 C   0  0  0  0  0  0  0  0  0  0  0  0
   -3.7181   -5.0417   -0.0000 C   0  0  0  0  0  0  0  0  0  0  0  0
   -2.5870   -3.5857   -0.0000 C   0  0  0  0  0  0  0  0  0  0  0  0
  1  2  1  0  0  0  0
  1  3  1  0  0  0  0
  2  4  1  0  0  0  0
  4  5  1  0  0  0  0
  5  6  2  0  0  0  0
  5  7  1  0  0  0  0
  6  8  1  0  0  0  0
  7  9  2  0  0  0  0
  8 10  2  0  0  0  0
  8 11  1  0  0  0  0
 11 12  1  0  0  0  0
 11 13  1  0  0  0  0
 12 14  1  0  0  0  0
 13 15  2  0  0  0  0
 13 16  1  0  0  0  0
 14 17  2  0  0  0  0
 14 18  1  0  0  0  0
 15 19  1  0  0  0  0
 15 20  1  0  0  0  0
 16 21  2  0  0  0  0
 17 22  1  0  0  0  0
 18 23  2  0  0  0  0
 19 24  1  0  0  0  0
 19 25  2  0  0  0  0
 20 26  2  0  0  0  0
 20 27  1  0  0  0  0
 22 28  1  0  0  0  0
 22 29  2  0  0  0  0
 24 30  1  0  0  0  0
 28 31  1  0  0  0  0
 30 32  1  0  0  0  0
 30 33  1  0  0  0  0
  9 10  1  0  0  0  0
 16 17  1  0  0  0  0
 21 25  1  0  0  0  0
 23 29  1  0  0  0  0
 26 30  1  0  0  0  0
M  END
>  <MolRegNo>
159285

>  <m>
=

>  <Value>
3115

>  <Unit>
nM

>  <Type>
Ki

>  <pValue>
5.51

>  <Ligand Efficiency>
0.23

>  <Binding Efficiency>
11.98

>  <Surface Efficiency>
13.86

>  <Assay Index>
36208

>  <Assay Category>


>  <Assay Organism>
Homo sapiens

>  <Target ID>
56

>  <Target Name>
Androgen Receptor

>  <Target Organism>
Homo sapiens

>  <Target Description>
Target is a single protein chain

>  <Sequence Accession>
P10275

>  <Reference>
J Med Chem 44 (18), 2879-2885 (2001)

>  <Pubmed ID>
11520196

>  <DOI>
10.1021/jm010228c

$$$$
160047
Actelion Java MolfileCreator 1.0

 35 39  0  0  0  0  0  0  0  0999 V2000
    0.0000   -0.0000   -0.0000 O   0  0  0  0  0  0  0  0  0  0  0  0
   -0.0241   -1.5053   -0.0000 C   0  0  0  0  0  0  0  0  0  0  0  0
   -1.3488   -2.2399   -0.0000 O   0  0  0  0  0  0  0  0  0  0  0  0
    1.2765   -2.2520   -0.0000 N   0  0  0  0  0  0  0  0  0  0  0  0
   -2.6735   -1.4572   -0.0000 C   0  0  0  0  0  0  0  0  0  0  0  0
    2.7217   -1.8546   -0.0000 C   0  0  0  0  0  0  0  0  0  0  0  0
    0.8791   -3.7092   -0.0000 C   0  0  0  0  0  0  0  0  0  0  0  0
   -4.0343   -2.2038   -0.0000 C   0  0  0  0  0  0  0  0  0  0  0  0
   -2.6735    0.0723   -0.0000 C   0  0  0  0  0  0  0  0  0  0  0  0
   -5.3108   -1.4210   -0.0000 C   0  0  0  0  0  0  0  0  0  0  0  0
   -3.9982    0.8430   -0.0000 C   0  0  0  0  0  0  0  0  0  0  0  0
   -5.3229    0.0963   -0.0000 C   0  0  0  0  0  0  0  0  0  0  0  0
   -6.6476   -2.1556   -0.0000 C   0  0  0  0  0  0  0  0  0  0  0  0
   -7.9723   -1.3849   -0.0000 O   0  0  0  0  0  0  0  0  0  0  0  0
   -6.6596   -3.6730   -0.0000 C   0  0  0  0  0  0  0  0  0  0  0  0
   -9.2970   -2.1316   -0.0000 C   0  0  0  0  0  0  0  0  0  0  0  0
   -5.3590   -4.4197   -0.0000 C   0  0  0  0  0  0  0  0  0  0  0  0
   -7.9843   -4.4076   -0.0000 C   0  0  0  0  0  0  0  0  0  0  0  0
   -9.3211   -3.6369   -0.0000 C   0  0  0  0  0  0  0  0  0  0  0  0
  -10.6217   -1.3608   -0.0000 C   0  0  0  0  0  0  0  0  0  0  0  0
   -5.3711   -5.9009   -0.0000 C   0  0  0  0  0  0  0  0  0  0  0  0
   -4.1788   -3.6610   -0.0000 C   0  0  0  0  0  0  0  0  0  0  0  0
   -8.0205   -5.9130   -0.0000 C   0  0  0  0  0  0  0  0  0  0  0  0
  -10.6458   -4.3956   -0.0000 C   0  0  0  0  0  0  0  0  0  0  0  0
  -11.9464   -2.1195   -0.0000 C   0  0  0  0  0  0  0  0  0  0  0  0
   -4.0825   -6.6476   -0.0000 N   0  0  0  0  0  0  0  0  0  0  0  0
   -6.7078   -6.6596   -0.0000 C   0  0  0  0  0  0  0  0  0  0  0  0
   -2.7698   -4.4076   -0.0000 C   0  0  0  0  0  0  0  0  0  0  0  0
   -4.1427   -2.6855   -0.0000 C   0  0  0  0  0  0  0  0  0  0  0  0
  -10.6458   -5.9009   -0.0000 O   0  0  0  0  0  0  0  0  0  0  0  0
  -11.9705   -3.6249   -0.0000 C   0  0  0  0  0  0  0  0  0  0  0  0
   -2.8060   -5.8768   -0.0000 C   0  0  0  0  0  0  0  0  0  0  0  0
  -11.9705   -6.6596   -0.0000 C   0  0  0  0  0  0  0  0  0  0  0  0
   -1.3006   -5.8648   -0.0000 C   0  0  0  0  0  0  0  0  0  0  0  0
   -2.4326   -7.3340   -0.0000 C   0  0  0  0  0  0  0  0  0  0  0  0
  1  2  2  0  0  0  0
  2  3  1  0  0  0  0
  2  4  1  0  0  0  0
  3  5  1  0  0  0  0
  4  6  1  0  0  0  0
  4  7  1  0  0  0  0
  5  8  2  0  0  0  0
  5  9  1  0  0  0  0
  8 10  1  0  0  0  0
  9 11  2  0  0  0  0
 10 12  2  0  0  0  0
 10 13  1  0  0  0  0
 13 14  1  0  0  0  0
 13 15  1  0  0  0  0
 14 16  1  0  0  0  0
 15 17  2  0  0  0  0
 15 18  1  0  0  0  0
 16 19  2  0  0  0  0
 16 20  1  0  0  0  0
 17 21  1  0  0  0  0
 17 22  1  0  0  0  0
 18 23  2  0  0  0  0
 19 24  1  0  0  0  0
 20 25  2  0  0  0  0
 21 26  1  0  0  0  0
 21 27  2  0  0  0  0
 22 28  2  0  0  0  0
 22 29  1  0  0  0  0
 24 30  1  0  0  0  0
 24 31  2  0  0  0  0
 26 32  1  0  0  0  0
 30 33  1  0  0  0  0
 32 34  1  0  0  0  0
 32 35  1  0  0  0  0
 11 12  1  0  0  0  0
 18 19  1  0  0  0  0
 23 27  1  0  0  0  0
 25 31  1  0  0  0  0
 28 32  1  0  0  0  0
M  END
>  <MolRegNo>
160047

>  <m>
=

>  <Value>
3066

>  <Unit>
nM

>  <Type>
Ki

>  <pValue>
5.51

>  <Ligand Efficiency>
0.22

>  <Binding Efficiency>
11.72

>  <Surface Efficiency>
9.18

>  <Assay Index>
36208

>  <Assay Category>


>  <Assay Organism>
Homo sapiens

>  <Target ID>
56

>  <Target Name>
Androgen Receptor

>  <Target Organism>
Homo sapiens

>  <Target Description>
Target is a single protein chain

>  <Sequence Accession>
P10275

>  <Reference>
J Med Chem 44 (18), 2879-2885 (2001)

>  <Pubmed ID>
11520196

>  <DOI>
10.1021/jm010228c

$$$$
300081
Actelion Java MolfileCreator 1.0

 22 25  0  0  1  0  0  0  0  0999 V2000
    0.0000   -0.0000   -0.0000 F   0  0  0  0  0  0  0  0  0  0  0  0
   -1.1730   -0.6598   -0.0000 C   0  0  0  0  0  0  0  0  0  0  0  0
    0.2444   -1.2096   -0.0000 F   0  0  0  0  0  0  0  0  0  0  0  0
   -0.9408    0.8797   -0.0000 F   0  0  0  0  0  0  0  0  0  0  0  0
   -2.4682   -1.3807   -0.0000 C   0  0  0  0  0  0  0  0  0  0  0  0
   -3.7511   -0.6354   -0.0000 C   0  0  0  0  0  0  0  0  0  0  0  0
   -2.4804   -2.8469   -0.0000 C   0  0  0  0  0  0  0  0  0  0  0  0
   -5.0585   -1.3563   -0.0000 C   0  0  0  0  0  0  0  0  0  0  0  0
   -3.7633   -3.5678   -0.0000 C   0  0  0  0  0  0  0  0  0  0  0  0
   -6.3415   -0.6109   -0.0000 N   0  0  0  0  0  0  0  0  0  0  0  0
   -5.0585   -2.8225   -0.0000 C   0  0  0  0  0  0  0  0  0  0  0  0
   -6.5003    0.8797   -0.0000 C   0  0  0  0  0  0  0  0  0  0  0  0
   -7.6977   -1.1974   -0.0000 C   0  0  0  0  0  0  0  0  0  0  0  0
   -5.4129    1.8817   -0.0000 O   0  0  0  0  0  0  0  0  0  0  0  0
   -7.9543    1.1852   -0.0000 C   0  0  0  0  0  0  0  0  0  0  0  0
   -8.0032   -2.6148   -0.0000 O   0  0  0  0  0  0  0  0  0  0  0  0
   -8.6997   -0.0855   -0.0000 C   0  0  0  0  0  0  0  0  0  0  0  0
   -9.5183    1.7106   -0.0000 C   0  0  0  0  0  0  0  0  0  0  0  0
   -9.9215    0.5254   -0.0000 C   0  0  0  0  0  0  0  0  0  0  0  0
   -9.7871    3.0669   -0.0000 C   0  0  0  0  0  0  0  0  0  0  0  0
  -10.5813    0.9897   -0.0000 C   0  0  0  0  0  0  0  0  0  0  0  0
  -11.1923   -0.0855   -0.0000 C   0  0  0  0  0  0  0  0  0  0  0  0
  1  2  1  0  0  0  0
  2  3  1  0  0  0  0
  2  4  1  0  0  0  0
  2  5  1  0  0  0  0
  5  6  2  0  0  0  0
  5  7  1  0  0  0  0
  6  8  1  0  0  0  0
  7  9  2  0  0  0  0
  8 10  1  0  0  0  0
  8 11  2  0  0  0  0
 10 12  1  0  0  0  0
 10 13  1  0  0  0  0
 12 14  2  0  0  0  0
 15 12  1  6  0  0  0
 13 16  2  0  0  0  0
 17 13  1  6  0  0  0
 15 18  1  0  0  0  0
 17 19  1  0  0  0  0
 18 20  1  0  0  0  0
 18 21  1  0  0  0  0
 19 22  1  0  0  0  0
  9 11  1  0  0  0  0
 15 17  1  0  0  0  0
 19 20  1  0  0  0  0
 21 22  1  0  0  0  0
M  END
>  <MolRegNo>
300081

>  <m>
=

>  <Value>
1615

>  <Unit>
nM

>  <Type>
Ki

>  <pValue>
5.79

>  <Ligand Efficiency>
0.36

>  <Binding Efficiency>
18.73

>  <Surface Efficiency>
15.49

>  <Assay Index>
235861

>  <Assay Category>


>  <Assay Organism>
Homo sapiens

>  <Target ID>
56

>  <Target Name>
Androgen Receptor

>  <Target Organism>
Homo sapiens

>  <Target Description>
Target is a single protein chain

>  <Sequence Accession>
P10275

>  <Reference>
Bioorg Med Chem Lett 15 (2), 389-393 (2005)

>  <Pubmed ID>
15603960

>  <DOI>
10.1016/j.bmcl.2004.10.051

$$$$
300127
Actelion Java MolfileCreator 1.0

 25 28  0  0  1  0  0  0  0  0999 V2000
    0.0000   -0.0000   -0.0000 F   0  0  0  0  0  0  0  0  0  0  0  0
   -0.2463   -1.5149   -0.0000 C   0  0  0  0  0  0  0  0  0  0  0  0
    0.8991   -0.8252   -0.0000 F   0  0  0  0  0  0  0  0  0  0  0  0
    1.1823   -2.0568   -0.0000 F   0  0  0  0  0  0  0  0  0  0  0  0
   -1.5518   -2.2415   -0.0000 C   0  0  0  0  0  0  0  0  0  0  0  0
   -1.5641   -3.7071   -0.0000 C   0  0  0  0  0  0  0  0  0  0  0  0
   -2.8450   -1.4902   -0.0000 C   0  0  0  0  0  0  0  0  0  0  0  0
   -0.2956   -4.4338   -0.0000 N   0  0  0  0  0  0  0  0  0  0  0  0
   -2.8573   -4.4338   -0.0000 C   0  0  0  0  0  0  0  0  0  0  0  0
   -4.1382   -2.2169   -0.0000 C   0  0  0  0  0  0  0  0  0  0  0  0
    0.9853   -3.6825   -0.0000 O   0  0  0  0  0  0  0  0  0  0  0  0
   -0.3079   -5.8994   -0.0000 O   0  0  0  0  0  0  0  0  0  0  0  0
   -4.1505   -3.6825   -0.0000 C   0  0  0  0  0  0  0  0  0  0  0  0
   -5.4314   -1.4656   -0.0000 N   0  0  0  0  0  0  0  0  0  0  0  0
   -5.6038    0.0246   -0.0000 C   0  0  0  0  0  0  0  0  0  0  0  0
   -6.7862   -2.0568   -0.0000 C   0  0  0  0  0  0  0  0  0  0  0  0
   -4.4954    1.0222   -0.0000 O   0  0  0  0  0  0  0  0  0  0  0  0
   -7.0571    0.3325   -0.0000 C   0  0  0  0  0  0  0  0  0  0  0  0
   -7.1187   -3.4855   -0.0000 O   0  0  0  0  0  0  0  0  0  0  0  0
   -7.7838   -0.9483   -0.0000 C   0  0  0  0  0  0  0  0  0  0  0  0
   -8.6336    0.8621   -0.0000 C   0  0  0  0  0  0  0  0  0  0  0  0
   -9.0031   -0.3325   -0.0000 C   0  0  0  0  0  0  0  0  0  0  0  0
   -9.7051    0.1355   -0.0000 C   0  0  0  0  0  0  0  0  0  0  0  0
   -8.9045    2.2169   -0.0000 C   0  0  0  0  0  0  0  0  0  0  0  0
  -10.2840   -0.9607   -0.0000 C   0  0  0  0  0  0  0  0  0  0  0  0
  1  2  1  0  0  0  0
  2  3  1  0  0  0  0
  2  4  1  0  0  0  0
  2  5  1  0  0  0  0
  5  6  2  0  0  0  0
  5  7  1  0  0  0  0
  6  8  1  0  0  0  0
  6  9  1  0  0  0  0
  7 10  2  0  0  0  0
  8 11  2  0  0  0  0
  8 12  1  0  0  0  0
  9 13  2  0  0  0  0
 10 14  1  0  0  0  0
 14 15  1  0  0  0  0
 14 16  1  0  0  0  0
 15 17  2  0  0  0  0
 18 15  1  6  0  0  0
 16 19  2  0  0  0  0
 20 16  1  6  0  0  0
 18 21  1  0  0  0  0
 20 22  1  0  0  0  0
 21 23  1  0  0  0  0
 21 24  1  0  0  0  0
 22 25  1  0  0  0  0
 10 13  1  0  0  0  0
 18 20  1  0  0  0  0
 22 24  1  0  0  0  0
 23 25  2  0  0  0  0
M  CHG  2   8   1  12  -1
M  END
>  <MolRegNo>
300127

>  <m>
=

>  <Value>
55

>  <Unit>
nM

>  <Type>
Ki

>  <pValue>
7.26

>  <Ligand Efficiency>
0.4

>  <Binding Efficiency>
20.61

>  <Surface Efficiency>
9.02

>  <Assay Index>
235861

>  <Assay Category>


>  <Assay Organism>
Homo sapiens

>  <Target ID>
56

>  <Target Name>
Androgen Receptor

>  <Target Organism>
Homo sapiens

>  <Target Description>
Target is a single protein chain

>  <Sequence Accession>
P10275

>  <Reference>
Bioorg Med Chem Lett 15 (2), 389-393 (2005)

>  <Pubmed ID>
15603960

>  <DOI>
10.1016/j.bmcl.2004.10.051

$$$$
300144
Actelion Java MolfileCreator 1.0

 25 28  0  0  1  0  0  0  0  0999 V2000
    0.0000   -0.0000   -0.0000 F   0  0  0  0  0  0  0  0  0  0  0  0
   -0.2462   -1.5265   -0.0000 C   0  0  0  0  0  0  0  0  0  0  0  0
    0.8986   -0.8371   -0.0000 F   0  0  0  0  0  0  0  0  0  0  0  0
    1.1818   -2.0681   -0.0000 F   0  0  0  0  0  0  0  0  0  0  0  0
   -1.5511   -2.2528   -0.0000 C   0  0  0  0  0  0  0  0  0  0  0  0
   -1.5634   -3.7177   -0.0000 C   0  0  0  0  0  0  0  0  0  0  0  0
   -2.8436   -1.5018   -0.0000 C   0  0  0  0  0  0  0  0  0  0  0  0
   -0.2954   -4.4440   -0.0000 N   0  0  0  0  0  0  0  0  0  0  0  0
   -2.8559   -4.4440   -0.0000 C   0  0  0  0  0  0  0  0  0  0  0  0
   -4.1362   -2.2281   -0.0000 C   0  0  0  0  0  0  0  0  0  0  0  0
    0.9848   -3.6930   -0.0000 O   0  0  0  0  0  0  0  0  0  0  0  0
   -0.3078   -5.9089   -0.0000 O   0  0  0  0  0  0  0  0  0  0  0  0
   -4.1485   -3.6930   -0.0000 C   0  0  0  0  0  0  0  0  0  0  0  0
   -5.4288   -1.4772   -0.0000 N   0  0  0  0  0  0  0  0  0  0  0  0
   -5.6011    0.0123   -0.0000 C   0  0  0  0  0  0  0  0  0  0  0  0
   -6.7829   -2.0681   -0.0000 C   0  0  0  0  0  0  0  0  0  0  0  0
   -4.4932    1.0217   -0.0000 O   0  0  0  0  0  0  0  0  0  0  0  0
   -7.0537    0.3201   -0.0000 C   0  0  0  0  0  0  0  0  0  0  0  0
   -7.1153   -3.4961   -0.0000 O   0  0  0  0  0  0  0  0  0  0  0  0
   -7.7800   -0.9602   -0.0000 C   0  0  0  0  0  0  0  0  0  0  0  0
   -8.6294    0.8494   -0.0000 C   0  0  0  0  0  0  0  0  0  0  0  0
   -8.9987   -0.3447   -0.0000 C   0  0  0  0  0  0  0  0  0  0  0  0
   -8.9002    2.2035   -0.0000 C   0  0  0  0  0  0  0  0  0  0  0  0
   -9.7004    0.1231   -0.0000 C   0  0  0  0  0  0  0  0  0  0  0  0
  -10.2790   -0.9725   -0.0000 C   0  0  0  0  0  0  0  0  0  0  0  0
  1  2  1  0  0  0  0
  2  3  1  0  0  0  0
  2  4  1  0  0  0  0
  2  5  1  0  0  0  0
  5  6  2  0  0  0  0
  5  7  1  0  0  0  0
  6  8  1  0  0  0  0
  6  9  1  0  0  0  0
  7 10  2  0  0  0  0
  8 11  2  0  0  0  0
  8 12  1  0  0  0  0
  9 13  2  0  0  0  0
 10 14  1  0  0  0  0
 14 15  1  0  0  0  0
 14 16  1  0  0  0  0
 15 17  2  0  0  0  0
 18 15  1  6  0  0  0
 16 19  2  0  0  0  0
 20 16  1  6  0  0  0
 18 21  1  0  0  0  0
 20 22  1  0  0  0  0
 21 23  1  0  0  0  0
 21 24  1  0  0  0  0
 22 25  1  0  0  0  0
 10 13  1  0  0  0  0
 18 20  1  0  0  0  0
 22 23  1  0  0  0  0
 24 25  1  0  0  0  0
M  CHG  2   8   1  12  -1
M  END
>  <MolRegNo>
300144

>  <m>
=

>  <Value>
5

>  <Unit>
nM

>  <Type>
Ki

>  <pValue>
8.3

>  <Ligand Efficiency>
0.45

>  <Binding Efficiency>
23.43

>  <Surface Efficiency>
10.31

>  <Assay Index>
235861

>  <Assay Category>


>  <Assay Organism>
Homo sapiens

>  <Target ID>
56

>  <Target Name>
Androgen Receptor

>  <Target Organism>
Homo sapiens

>  <Target Description>
Target is a single protein chain

>  <Sequence Accession>
P10275

>  <Reference>
Bioorg Med Chem Lett 15 (2), 389-393 (2005)

>  <Pubmed ID>
15603960

>  <DOI>
10.1016/j.bmcl.2004.10.051

$$$$
300282
Actelion Java MolfileCreator 1.0

 23 26  0  0  1  0  0  0  0  0999 V2000
    0.0000   -0.0000   -0.0000 Br  0  0  0  0  0  0  0  0  0  0  0  0
   -1.2809    0.7442   -0.0000 C   0  0  0  0  0  0  0  0  0  0  0  0
   -1.2931    2.2325   -0.0000 C   0  0  0  0  0  0  0  0  0  0  0  0
   -2.5618    0.0244   -0.0000 C   0  0  0  0  0  0  0  0  0  0  0  0
   -2.5740    2.9766   -0.0000 C   0  0  0  0  0  0  0  0  0  0  0  0
   -0.0244    2.9766   -0.0000 C   0  0  0  0  0  0  0  0  0  0  0  0
   -3.8672    0.7686   -0.0000 C   0  0  0  0  0  0  0  0  0  0  0  0
   -3.8794    2.2569   -0.0000 C   0  0  0  0  0  0  0  0  0  0  0  0
    1.1223    3.6598   -0.0000 F   0  0  0  0  0  0  0  0  0  0  0  0
    1.4029    2.4399   -0.0000 F   0  0  0  0  0  0  0  0  0  0  0  0
    0.2074    4.5137   -0.0000 F   0  0  0  0  0  0  0  0  0  0  0  0
   -5.1481    3.0010   -0.0000 N   0  0  0  0  0  0  0  0  0  0  0  0
   -5.3311    4.4893   -0.0000 C   0  0  0  0  0  0  0  0  0  0  0  0
   -6.5022    2.4155   -0.0000 C   0  0  0  0  0  0  0  0  0  0  0  0
   -4.2209    5.4897   -0.0000 O   0  0  0  0  0  0  0  0  0  0  0  0
   -6.7706    4.8187   -0.0000 C   0  0  0  0  0  0  0  0  0  0  0  0
   -6.8438    1.0003   -0.0000 O   0  0  0  0  0  0  0  0  0  0  0  0
   -7.5025    3.5256   -0.0000 C   0  0  0  0  0  0  0  0  0  0  0  0
   -8.3321    5.3189   -0.0000 C   0  0  0  0  0  0  0  0  0  0  0  0
   -8.7225    4.1356   -0.0000 C   0  0  0  0  0  0  0  0  0  0  0  0
   -9.3934    4.5991   -0.0000 C   0  0  0  0  0  0  0  0  0  0  0  0
   -8.6005    6.6730   -0.0000 C   0  0  0  0  0  0  0  0  0  0  0  0
  -10.0034    3.5256   -0.0000 C   0  0  0  0  0  0  0  0  0  0  0  0
  1  2  1  0  0  0  0
  2  3  2  0  0  0  0
  2  4  1  0  0  0  0
  3  5  1  0  0  0  0
  3  6  1  0  0  0  0
  4  7  2  0  0  0  0
  5  8  2  0  0  0  0
  6  9  1  0  0  0  0
  6 10  1  0  0  0  0
  6 11  1  0  0  0  0
  8 12  1  0  0  0  0
 12 13  1  0  0  0  0
 12 14  1  0  0  0  0
 13 15  2  0  0  0  0
 16 13  1  6  0  0  0
 14 17  2  0  0  0  0
 18 14  1  6  0  0  0
 16 19  1  0  0  0  0
 18 20  1  0  0  0  0
 19 21  1  0  0  0  0
 19 22  1  0  0  0  0
 20 23  1  0  0  0  0
  7  8  1  0  0  0  0
 16 18  1  0  0  0  0
 20 22  1  0  0  0  0
 21 23  2  0  0  0  0
M  END
>  <MolRegNo>
300282

>  <m>
=

>  <Value>
46

>  <Unit>
nM

>  <Type>
Ki

>  <pValue>
7.34

>  <Ligand Efficiency>
0.44

>  <Binding Efficiency>
19

>  <Surface Efficiency>
19.63

>  <Assay Index>
235861

>  <Assay Category>


>  <Assay Organism>
Homo sapiens

>  <Target ID>
56

>  <Target Name>
Androgen Receptor

>  <Target Organism>
Homo sapiens

>  <Target Description>
Target is a single protein chain

>  <Sequence Accession>
P10275

>  <Reference>
Bioorg Med Chem Lett 15 (2), 389-393 (2005)

>  <Pubmed ID>
15603960

>  <DOI>
10.1016/j.bmcl.2004.10.051

$$$$
300283
Actelion Java MolfileCreator 1.0

 20 23  0  0  1  0  0  0  0  0999 V2000
    0.0000   -0.0000   -0.0000 Br  0  0  0  0  0  0  0  0  0  0  0  0
   -1.2853    0.7639   -0.0000 C   0  0  0  0  0  0  0  0  0  0  0  0
   -1.2974    2.2431   -0.0000 C   0  0  0  0  0  0  0  0  0  0  0  0
   -2.5705    0.0606   -0.0000 C   0  0  0  0  0  0  0  0  0  0  0  0
   -2.5826    2.9949   -0.0000 C   0  0  0  0  0  0  0  0  0  0  0  0
   -0.0364    2.9949   -0.0000 C   0  0  0  0  0  0  0  0  0  0  0  0
   -3.8558    0.7881   -0.0000 C   0  0  0  0  0  0  0  0  0  0  0  0
   -3.8800    2.2674   -0.0000 C   0  0  0  0  0  0  0  0  0  0  0  0
   -5.1653    3.0192   -0.0000 N   0  0  0  0  0  0  0  0  0  0  0  0
   -5.3229    4.4863   -0.0000 C   0  0  0  0  0  0  0  0  0  0  0  0
   -6.5112    2.4250   -0.0000 C   0  0  0  0  0  0  0  0  0  0  0  0
   -4.2438    5.4805   -0.0000 O   0  0  0  0  0  0  0  0  0  0  0  0
   -6.7901    4.8258   -0.0000 C   0  0  0  0  0  0  0  0  0  0  0  0
   -6.8264    1.0064   -0.0000 O   0  0  0  0  0  0  0  0  0  0  0  0
   -7.5054    3.5284   -0.0000 C   0  0  0  0  0  0  0  0  0  0  0  0
   -8.3421    5.3350   -0.0000 C   0  0  0  0  0  0  0  0  0  0  0  0
   -8.7180    4.1468   -0.0000 C   0  0  0  0  0  0  0  0  0  0  0  0
   -9.4091    4.6075   -0.0000 C   0  0  0  0  0  0  0  0  0  0  0  0
   -8.6209    6.6688   -0.0000 C   0  0  0  0  0  0  0  0  0  0  0  0
  -10.0032    3.5284   -0.0000 C   0  0  0  0  0  0  0  0  0  0  0  0
  1  2  1  0  0  0  0
  2  3  2  0  0  0  0
  2  4  1  0  0  0  0
  3  5  1  0  0  0  0
  3  6  1  0  0  0  0
  4  7  2  0  0  0  0
  5  8  2  0  0  0  0
  8  9  1  0  0  0  0
  9 10  1  0  0  0  0
  9 11  1  0  0  0  0
 10 12  2  0  0  0  0
 13 10  1  6  0  0  0
 11 14  2  0  0  0  0
 15 11  1  6  0  0  0
 13 16  1  0  0  0  0
 15 17  1  0  0  0  0
 16 18  1  0  0  0  0
 16 19  1  0  0  0  0
 17 20  1  0  0  0  0
  7  8  1  0  0  0  0
 13 15  1  0  0  0  0
 17 19  1  0  0  0  0
 18 20  2  0  0  0  0
M  END
>  <MolRegNo>
300283

>  <m>
=

>  <Value>
125

>  <Unit>
nM

>  <Type>
Ki

>  <pValue>
6.9

>  <Ligand Efficiency>
0.47

>  <Binding Efficiency>
20.78

>  <Surface Efficiency>
18.47

>  <Assay Index>
235861

>  <Assay Category>


>  <Assay Organism>
Homo sapiens

>  <Target ID>
56

>  <Target Name>
Androgen Receptor

>  <Target Organism>
Homo sapiens

>  <Target Description>
Target is a single protein chain

>  <Sequence Accession>
P10275

>  <Reference>
Bioorg Med Chem Lett 15 (2), 389-393 (2005)

>  <Pubmed ID>
15603960

>  <DOI>
10.1016/j.bmcl.2004.10.051

$$$$
300311
Actelion Java MolfileCreator 1.0

 20 23  0  0  1  0  0  0  0  0999 V2000
    0.0000   -0.0000   -0.0000 Cl  0  0  0  0  0  0  0  0  0  0  0  0
   -1.2949   -0.7221   -0.0000 C   0  0  0  0  0  0  0  0  0  0  0  0
   -1.3073   -2.1913   -0.0000 C   0  0  0  0  0  0  0  0  0  0  0  0
   -2.5773    0.0249   -0.0000 C   0  0  0  0  0  0  0  0  0  0  0  0
   -0.0498   -2.9383   -0.0000 F   0  0  0  0  0  0  0  0  0  0  0  0
   -2.5897   -2.9134   -0.0000 C   0  0  0  0  0  0  0  0  0  0  0  0
   -3.8721   -0.6972   -0.0000 C   0  0  0  0  0  0  0  0  0  0  0  0
   -3.8846   -2.1664   -0.0000 C   0  0  0  0  0  0  0  0  0  0  0  0
   -5.1546    0.0498   -0.0000 N   0  0  0  0  0  0  0  0  0  0  0  0
   -5.3289    1.5190   -0.0000 C   0  0  0  0  0  0  0  0  0  0  0  0
   -6.5117   -0.5478   -0.0000 C   0  0  0  0  0  0  0  0  0  0  0  0
   -4.2332    2.5150   -0.0000 O   0  0  0  0  0  0  0  0  0  0  0  0
   -6.7731    1.8551   -0.0000 C   0  0  0  0  0  0  0  0  0  0  0  0
   -6.8354   -1.9672   -0.0000 O   0  0  0  0  0  0  0  0  0  0  0  0
   -7.4953    0.5603   -0.0000 C   0  0  0  0  0  0  0  0  0  0  0  0
   -8.3668    2.3656   -0.0000 C   0  0  0  0  0  0  0  0  0  0  0  0
   -8.7154    1.1828   -0.0000 C   0  0  0  0  0  0  0  0  0  0  0  0
   -9.4127    1.6435   -0.0000 C   0  0  0  0  0  0  0  0  0  0  0  0
   -8.6283    3.7103   -0.0000 C   0  0  0  0  0  0  0  0  0  0  0  0
   -9.9854    0.5603   -0.0000 C   0  0  0  0  0  0  0  0  0  0  0  0
  1  2  1  0  0  0  0
  2  3  2  0  0  0  0
  2  4  1  0  0  0  0
  3  5  1  0  0  0  0
  3  6  1  0  0  0  0
  4  7  2  0  0  0  0
  6  8  2  0  0  0  0
  7  9  1  0  0  0  0
  9 10  1  0  0  0  0
  9 11  1  0  0  0  0
 10 12  2  0  0  0  0
 13 10  1  6  0  0  0
 11 14  2  0  0  0  0
 15 11  1  6  0  0  0
 13 16  1  0  0  0  0
 15 17  1  0  0  0  0
 16 18  1  0  0  0  0
 16 19  1  0  0  0  0
 17 20  1  0  0  0  0
  7  8  1  0  0  0  0
 13 15  1  0  0  0  0
 17 19  1  0  0  0  0
 18 20  2  0  0  0  0
M  END
>  <MolRegNo>
300311

>  <m>
=

>  <Value>
177

>  <Unit>
nM

>  <Type>
Ki

>  <pValue>
6.75

>  <Ligand Efficiency>
0.46

>  <Binding Efficiency>
23.15

>  <Surface Efficiency>
18.06

>  <Assay Index>
235861

>  <Assay Category>


>  <Assay Organism>
Homo sapiens

>  <Target ID>
56

>  <Target Name>
Androgen Receptor

>  <Target Organism>
Homo sapiens

>  <Target Description>
Target is a single protein chain

>  <Sequence Accession>
P10275

>  <Reference>
Bioorg Med Chem Lett 15 (2), 389-393 (2005)

>  <Pubmed ID>
15603960

>  <DOI>
10.1016/j.bmcl.2004.10.051

$$$$
300312
Actelion Java MolfileCreator 1.0

 20 23  0  0  1  0  0  0  0  0999 V2000
    0.0000   -0.0000   -0.0000 O   0  0  0  0  0  0  0  0  0  0  0  0
   -1.1262   -0.9761   -0.0000 C   0  0  0  0  0  0  0  0  0  0  0  0
   -0.9761   -2.4276   -0.0000 N   0  0  0  0  0  0  0  0  0  0  0  0
   -2.5778   -0.6382   -0.0000 C   0  0  0  0  0  0  0  0  0  0  0  0
    0.2878   -3.1534   -0.0000 C   0  0  0  0  0  0  0  0  0  0  0  0
   -2.3400   -3.0283   -0.0000 C   0  0  0  0  0  0  0  0  0  0  0  0
   -3.3286   -1.9271   -0.0000 C   0  0  0  0  0  0  0  0  0  0  0  0
   -4.1795   -0.1251   -0.0000 C   0  0  0  0  0  0  0  0  0  0  0  0
    1.5642   -2.4026   -0.0000 C   0  0  0  0  0  0  0  0  0  0  0  0
    0.2753   -4.6300   -0.0000 C   0  0  0  0  0  0  0  0  0  0  0  0
   -2.6654   -4.4548   -0.0000 O   0  0  0  0  0  0  0  0  0  0  0  0
   -4.5549   -1.3014   -0.0000 C   0  0  0  0  0  0  0  0  0  0  0  0
   -5.2306   -0.8509   -0.0000 C   0  0  0  0  0  0  0  0  0  0  0  0
   -4.4423    1.2263   -0.0000 C   0  0  0  0  0  0  0  0  0  0  0  0
    2.8280   -3.1284   -0.0000 C   0  0  0  0  0  0  0  0  0  0  0  0
    1.5517   -5.3558   -0.0000 C   0  0  0  0  0  0  0  0  0  0  0  0
   -5.8313   -1.9271   -0.0000 C   0  0  0  0  0  0  0  0  0  0  0  0
    2.8155   -4.6050   -0.0000 C   0  0  0  0  0  0  0  0  0  0  0  0
    4.1044   -2.3776   -0.0000 C   0  0  0  0  0  0  0  0  0  0  0  0
    4.0794   -5.3558   -0.0000 C   0  0  0  0  0  0  0  0  0  0  0  0
  1  2  2  0  0  0  0
  2  3  1  0  0  0  0
  4  2  1  6  0  0  0
  3  5  1  0  0  0  0
  3  6  1  0  0  0  0
  4  7  1  0  0  0  0
  4  8  1  0  0  0  0
  5  9  2  0  0  0  0
  5 10  1  0  0  0  0
  6 11  2  0  0  0  0
  7 12  1  6  0  0  0
  8 13  1  0  0  0  0
  8 14  1  0  0  0  0
  9 15  1  0  0  0  0
 10 16  2  0  0  0  0
 12 17  1  0  0  0  0
 15 18  2  0  0  0  0
 15 19  1  0  0  0  0
 18 20  1  0  0  0  0
  6  7  1  0  0  0  0
 12 14  1  0  0  0  0
 13 17  2  0  0  0  0
 16 18  1  0  0  0  0
M  END
>  <MolRegNo>
300312

>  <m>
=

>  <Value>
400

>  <Unit>
nM

>  <Type>
Ki

>  <pValue>
6.4

>  <Ligand Efficiency>
0.44

>  <Binding Efficiency>
23.93

>  <Surface Efficiency>
17.12

>  <Assay Index>
235861

>  <Assay Category>


>  <Assay Organism>
Homo sapiens

>  <Target ID>
56

>  <Target Name>
Androgen Receptor

>  <Target Organism>
Homo sapiens

>  <Target Description>
Target is a single protein chain

>  <Sequence Accession>
P10275

>  <Reference>
Bioorg Med Chem Lett 15 (2), 389-393 (2005)

>  <Pubmed ID>
15603960

>  <DOI>
10.1016/j.bmcl.2004.10.051

$$$$
300202
Actelion Java MolfileCreator 1.0

 25 29  0  0  1  0  0  0  0  0999 V2000
    0.0000   -0.0000   -0.0000 O   0  0  0  0  0  0  0  0  0  0  0  0
   -1.3029   -0.7252   -0.0000 N   0  0  0  0  0  0  0  0  0  0  0  0
   -1.3152   -2.1878   -0.0000 O   0  0  0  0  0  0  0  0  0  0  0  0
   -2.5934    0.0246   -0.0000 C   0  0  0  0  0  0  0  0  0  0  0  0
   -2.6057    1.5118   -0.0000 C   0  0  0  0  0  0  0  0  0  0  0  0
   -3.8840   -0.7006   -0.0000 C   0  0  0  0  0  0  0  0  0  0  0  0
   -3.8963    2.2616   -0.0000 C   0  0  0  0  0  0  0  0  0  0  0  0
   -1.3397    2.2616   -0.0000 C   0  0  0  0  0  0  0  0  0  0  0  0
   -5.1746    0.0492   -0.0000 C   0  0  0  0  0  0  0  0  0  0  0  0
   -5.1869    1.5364   -0.0000 C   0  0  0  0  0  0  0  0  0  0  0  0
   -3.9086    3.7365   -0.0000 C   0  0  0  0  0  0  0  0  0  0  0  0
   -1.3520    3.7488   -0.0000 C   0  0  0  0  0  0  0  0  0  0  0  0
   -6.4774    2.2862   -0.0000 N   0  0  0  0  0  0  0  0  0  0  0  0
   -2.6426    4.4863   -0.0000 C   0  0  0  0  0  0  0  0  0  0  0  0
   -6.6495    3.7734   -0.0000 C   0  0  0  0  0  0  0  0  0  0  0  0
   -7.8295    1.6962   -0.0000 C   0  0  0  0  0  0  0  0  0  0  0  0
   -5.5433    4.7690   -0.0000 O   0  0  0  0  0  0  0  0  0  0  0  0
   -8.0999    4.0807   -0.0000 C   0  0  0  0  0  0  0  0  0  0  0  0
   -8.1613    0.2704   -0.0000 O   0  0  0  0  0  0  0  0  0  0  0  0
   -8.8251    2.8024   -0.0000 C   0  0  0  0  0  0  0  0  0  0  0  0
   -9.6731    4.6092   -0.0000 C   0  0  0  0  0  0  0  0  0  0  0  0
  -10.0419    3.4169   -0.0000 C   0  0  0  0  0  0  0  0  0  0  0  0
  -10.7425    3.8840   -0.0000 C   0  0  0  0  0  0  0  0  0  0  0  0
   -9.9435    5.9612   -0.0000 C   0  0  0  0  0  0  0  0  0  0  0  0
  -11.3202    2.8024   -0.0000 C   0  0  0  0  0  0  0  0  0  0  0  0
  1  2  2  0  0  0  0
  2  3  1  0  0  0  0
  2  4  1  0  0  0  0
  4  5  1  0  0  0  0
  4  6  2  0  0  0  0
  5  7  1  0  0  0  0
  5  8  2  0  0  0  0
  6  9  1  0  0  0  0
  7 10  1  0  0  0  0
  7 11  2  0  0  0  0
  8 12  1  0  0  0  0
 10 13  1  0  0  0  0
 11 14  1  0  0  0  0
 13 15  1  0  0  0  0
 13 16  1  0  0  0  0
 15 17  2  0  0  0  0
 18 15  1  6  0  0  0
 16 19  2  0  0  0  0
 20 16  1  6  0  0  0
 18 21  1  0  0  0  0
 20 22  1  0  0  0  0
 21 23  1  0  0  0  0
 21 24  1  0  0  0  0
 22 25  1  0  0  0  0
  9 10  2  0  0  0  0
 12 14  2  0  0  0  0
 18 20  1  0  0  0  0
 22 24  1  0  0  0  0
 23 25  2  0  0  0  0
M  CHG  2   2   1   3  -1
M  END
>  <MolRegNo>
300202

>  <m>
=

>  <Value>
1

>  <Unit>
nM

>  <Type>
Ki

>  <pValue>
9

>  <Ligand Efficiency>
0.49

>  <Binding Efficiency>
26.92

>  <Surface Efficiency>
11.18

>  <Assay Index>
235861

>  <Assay Category>


>  <Assay Organism>
Homo sapiens

>  <Target ID>
56

>  <Target Name>
Androgen Receptor

>  <Target Organism>
Homo sapiens

>  <Target Description>
Target is a single protein chain

>  <Sequence Accession>
P10275

>  <Reference>
Bioorg Med Chem Lett 15 (2), 389-393 (2005)

>  <Pubmed ID>
15603960

>  <DOI>
10.1016/j.bmcl.2004.10.051

$$$$
300226
Actelion Java MolfileCreator 1.0

 26 29  0  0  1  0  0  0  0  0999 V2000
    0.0000   -0.0000   -0.0000 F   0  0  0  0  0  0  0  0  0  0  0  0
   -1.4646    0.5907   -0.0000 C   0  0  0  0  0  0  0  0  0  0  0  0
   -1.2184    2.1168   -0.0000 F   0  0  0  0  0  0  0  0  0  0  0  0
   -0.3077    1.2553   -0.0000 F   0  0  0  0  0  0  0  0  0  0  0  0
   -2.7445   -0.1477   -0.0000 C   0  0  0  0  0  0  0  0  0  0  0  0
   -4.0368    0.6154   -0.0000 C   0  0  0  0  0  0  0  0  0  0  0  0
   -2.7568   -1.6122   -0.0000 C   0  0  0  0  0  0  0  0  0  0  0  0
   -5.3290   -0.1231   -0.0000 C   0  0  0  0  0  0  0  0  0  0  0  0
   -4.0491   -2.3384   -0.0000 C   0  0  0  0  0  0  0  0  0  0  0  0
   -6.6213    0.6400   -0.0000 N   0  0  0  0  0  0  0  0  0  0  0  0
   -5.3413   -1.5876   -0.0000 C   0  0  0  0  0  0  0  0  0  0  0  0
   -4.0491   -3.8029   -0.0000 C   0  0  0  0  0  0  0  0  0  0  0  0
   -6.7936    2.1168   -0.0000 C   0  0  0  0  0  0  0  0  0  0  0  0
   -7.9874    0.0369   -0.0000 C   0  0  0  0  0  0  0  0  0  0  0  0
   -4.0614   -5.1321   -0.0000 F   0  0  0  0  0  0  0  0  0  0  0  0
   -5.2675   -4.7629   -0.0000 F   0  0  0  0  0  0  0  0  0  0  0  0
   -2.8676   -4.7629   -0.0000 F   0  0  0  0  0  0  0  0  0  0  0  0
   -5.6859    3.1137   -0.0000 O   0  0  0  0  0  0  0  0  0  0  0  0
   -8.2458    2.4368   -0.0000 C   0  0  0  0  0  0  0  0  0  0  0  0
   -8.3073   -1.3907   -0.0000 O   0  0  0  0  0  0  0  0  0  0  0  0
   -8.9842    1.1446   -0.0000 C   0  0  0  0  0  0  0  0  0  0  0  0
   -9.8211    2.9537   -0.0000 C   0  0  0  0  0  0  0  0  0  0  0  0
  -10.2026    1.7599   -0.0000 C   0  0  0  0  0  0  0  0  0  0  0  0
  -10.8918    2.2276   -0.0000 C   0  0  0  0  0  0  0  0  0  0  0  0
  -10.0919    4.3075   -0.0000 C   0  0  0  0  0  0  0  0  0  0  0  0
  -11.4826    1.1446   -0.0000 C   0  0  0  0  0  0  0  0  0  0  0  0
  1  2  1  0  0  0  0
  2  3  1  0  0  0  0
  2  4  1  0  0  0  0
  2  5  1  0  0  0  0
  5  6  2  0  0  0  0
  5  7  1  0  0  0  0
  6  8  1  0  0  0  0
  7  9  2  0  0  0  0
  8 10  1  0  0  0  0
  8 11  2  0  0  0  0
  9 12  1  0  0  0  0
 10 13  1  0  0  0  0
 10 14  1  0  0  0  0
 12 15  1  0  0  0  0
 12 16  1  0  0  0  0
 12 17  1  0  0  0  0
 13 18  2  0  0  0  0
 19 13  1  6  0  0  0
 14 20  2  0  0  0  0
 21 14  1  6  0  0  0
 19 22  1  0  0  0  0
 21 23  1  0  0  0  0
 22 24  1  0  0  0  0
 22 25  1  0  0  0  0
 23 26  1  0  0  0  0
  9 11  1  0  0  0  0
 19 21  1  0  0  0  0
 23 25  1  0  0  0  0
 24 26  2  0  0  0  0
M  END
>  <MolRegNo>
300226

>  <m>
=

>  <Value>
401

>  <Unit>
nM

>  <Type>
Ki

>  <pValue>
6.4

>  <Ligand Efficiency>
0.34

>  <Binding Efficiency>
17.05

>  <Surface Efficiency>
17.11

>  <Assay Index>
235861

>  <Assay Category>


>  <Assay Organism>
Homo sapiens

>  <Target ID>
56

>  <Target Name>
Androgen Receptor

>  <Target Organism>
Homo sapiens

>  <Target Description>
Target is a single protein chain

>  <Sequence Accession>
P10275

>  <Reference>
Bioorg Med Chem Lett 15 (2), 389-393 (2005)

>  <Pubmed ID>
15603960

>  <DOI>
10.1016/j.bmcl.2004.10.051

$$$$
300270
Actelion Java MolfileCreator 1.0

 20 23  0  0  1  0  0  0  0  0999 V2000
    0.0000   -0.0000   -0.0000 Cl  0  0  0  0  0  0  0  0  0  0  0  0
   -0.0122    1.4874   -0.0000 C   0  0  0  0  0  0  0  0  0  0  0  0
    1.2314    2.2312   -0.0000 C   0  0  0  0  0  0  0  0  0  0  0  0
   -1.2924    2.2312   -0.0000 C   0  0  0  0  0  0  0  0  0  0  0  0
    1.2192    3.7186   -0.0000 C   0  0  0  0  0  0  0  0  0  0  0  0
   -1.3289    3.7186   -0.0000 C   0  0  0  0  0  0  0  0  0  0  0  0
    2.4994    4.4623   -0.0000 Cl  0  0  0  0  0  0  0  0  0  0  0  0
   -0.0488    4.4623   -0.0000 C   0  0  0  0  0  0  0  0  0  0  0  0
   -2.6091    4.4623   -0.0000 N   0  0  0  0  0  0  0  0  0  0  0  0
   -2.7554    5.9498   -0.0000 C   0  0  0  0  0  0  0  0  0  0  0  0
   -3.9625    3.8771   -0.0000 C   0  0  0  0  0  0  0  0  0  0  0  0
   -1.6703    6.9496   -0.0000 O   0  0  0  0  0  0  0  0  0  0  0  0
   -4.2185    6.2546   -0.0000 C   0  0  0  0  0  0  0  0  0  0  0  0
   -4.2673    2.4628   -0.0000 O   0  0  0  0  0  0  0  0  0  0  0  0
   -4.9622    4.9866   -0.0000 C   0  0  0  0  0  0  0  0  0  0  0  0
   -5.7791    6.7789   -0.0000 C   0  0  0  0  0  0  0  0  0  0  0  0
   -6.1693    5.5962   -0.0000 C   0  0  0  0  0  0  0  0  0  0  0  0
   -6.8276    6.0595   -0.0000 C   0  0  0  0  0  0  0  0  0  0  0  0
   -6.0473    8.1322   -0.0000 C   0  0  0  0  0  0  0  0  0  0  0  0
   -7.4494    4.9866   -0.0000 C   0  0  0  0  0  0  0  0  0  0  0  0
  1  2  1  0  0  0  0
  2  3  2  0  0  0  0
  2  4  1  0  0  0  0
  3  5  1  0  0  0  0
  4  6  2  0  0  0  0
  5  7  1  0  0  0  0
  5  8  2  0  0  0  0
  6  9  1  0  0  0  0
  9 10  1  0  0  0  0
  9 11  1  0  0  0  0
 10 12  2  0  0  0  0
 13 10  1  6  0  0  0
 11 14  2  0  0  0  0
 15 11  1  6  0  0  0
 13 16  1  0  0  0  0
 15 17  1  0  0  0  0
 16 18  1  0  0  0  0
 16 19  1  0  0  0  0
 17 20  1  0  0  0  0
  6  8  1  0  0  0  0
 13 15  1  0  0  0  0
 17 19  1  0  0  0  0
 18 20  2  0  0  0  0
M  END
>  <MolRegNo>
300270

>  <m>
=

>  <Value>
158

>  <Unit>
nM

>  <Type>
Ki

>  <pValue>
6.8

>  <Ligand Efficiency>
0.46

>  <Binding Efficiency>
22.07

>  <Surface Efficiency>
18.2

>  <Assay Index>
235861

>  <Assay Category>


>  <Assay Organism>
Homo sapiens

>  <Target ID>
56

>  <Target Name>
Androgen Receptor

>  <Target Organism>
Homo sapiens

>  <Target Description>
Target is a single protein chain

>  <Sequence Accession>
P10275

>  <Reference>
Bioorg Med Chem Lett 15 (2), 389-393 (2005)

>  <Pubmed ID>
15603960

>  <DOI>
10.1016/j.bmcl.2004.10.051

$$$$
300291
Actelion Java MolfileCreator 1.0

 22 26  0  0  1  0  0  0  0  0999 V2000
    0.0000   -0.0000   -0.0000 O   0  0  0  0  0  0  0  0  0  0  0  0
   -1.1145   -0.9783   -0.0000 C   0  0  0  0  0  0  0  0  0  0  0  0
   -0.9906   -2.4518   -0.0000 N   0  0  0  0  0  0  0  0  0  0  0  0
   -2.5757   -0.6439   -0.0000 C   0  0  0  0  0  0  0  0  0  0  0  0
    0.2972   -3.1948   -0.0000 C   0  0  0  0  0  0  0  0  0  0  0  0
   -2.3404   -3.0338   -0.0000 C   0  0  0  0  0  0  0  0  0  0  0  0
   -3.3434   -1.9318   -0.0000 C   0  0  0  0  0  0  0  0  0  0  0  0
   -4.1607   -0.1238   -0.0000 C   0  0  0  0  0  0  0  0  0  0  0  0
    0.2972   -4.6684   -0.0000 C   0  0  0  0  0  0  0  0  0  0  0  0
    1.5850   -2.4271   -0.0000 C   0  0  0  0  0  0  0  0  0  0  0  0
   -2.6623   -4.4827   -0.0000 O   0  0  0  0  0  0  0  0  0  0  0  0
   -4.5570   -1.3126   -0.0000 C   0  0  0  0  0  0  0  0  0  0  0  0
   -5.2380   -0.8544   -0.0000 C   0  0  0  0  0  0  0  0  0  0  0  0
   -4.4455    1.2383   -0.0000 C   0  0  0  0  0  0  0  0  0  0  0  0
    1.5726   -5.3742   -0.0000 C   0  0  0  0  0  0  0  0  0  0  0  0
    2.8605   -3.1701   -0.0000 C   0  0  0  0  0  0  0  0  0  0  0  0
   -5.8324   -1.9441   -0.0000 C   0  0  0  0  0  0  0  0  0  0  0  0
    1.5603   -6.8478   -0.0000 N   0  0  0  0  0  0  0  0  0  0  0  0
    2.8481   -4.6313   -0.0000 C   0  0  0  0  0  0  0  0  0  0  0  0
    2.8357   -7.5660   -0.0000 C   0  0  0  0  0  0  0  0  0  0  0  0
    4.1112   -5.3495   -0.0000 C   0  0  0  0  0  0  0  0  0  0  0  0
    4.0988   -6.8107   -0.0000 C   0  0  0  0  0  0  0  0  0  0  0  0
  1  2  2  0  0  0  0
  2  3  1  0  0  0  0
  4  2  1  6  0  0  0
  3  5  1  0  0  0  0
  3  6  1  0  0  0  0
  4  7  1  0  0  0  0
  4  8  1  0  0  0  0
  5  9  2  0  0  0  0
  5 10  1  0  0  0  0
  6 11  2  0  0  0  0
  7 12  1  6  0  0  0
  8 13  1  0  0  0  0
  8 14  1  0  0  0  0
  9 15  1  0  0  0  0
 10 16  2  0  0  0  0
 12 17  1  0  0  0  0
 15 18  2  0  0  0  0
 15 19  1  0  0  0  0
 18 20  1  0  0  0  0
 19 21  2  0  0  0  0
 20 22  2  0  0  0  0
  6  7  1  0  0  0  0
 12 14  1  0  0  0  0
 13 17  2  0  0  0  0
 16 19  1  0  0  0  0
 21 22  1  0  0  0  0
M  END
>  <MolRegNo>
300291

>  <m>
=

>  <Value>
530

>  <Unit>
nM

>  <Type>
Ki

>  <pValue>
6.28

>  <Ligand Efficiency>
0.39

>  <Binding Efficiency>
21.62

>  <Surface Efficiency>
12.48

>  <Assay Index>
235861

>  <Assay Category>


>  <Assay Organism>
Homo sapiens

>  <Target ID>
56

>  <Target Name>
Androgen Receptor

>  <Target Organism>
Homo sapiens

>  <Target Description>
Target is a single protein chain

>  <Sequence Accession>
P10275

>  <Reference>
Bioorg Med Chem Lett 15 (2), 389-393 (2005)

>  <Pubmed ID>
15603960

>  <DOI>
10.1016/j.bmcl.2004.10.051

$$$$
300298
Actelion Java MolfileCreator 1.0

 22 26  0  0  1  0  0  0  0  0999 V2000
    0.0000   -0.0000   -0.0000 O   0  0  0  0  0  0  0  0  0  0  0  0
   -1.1142   -0.9780   -0.0000 C   0  0  0  0  0  0  0  0  0  0  0  0
   -0.9904   -2.4511   -0.0000 N   0  0  0  0  0  0  0  0  0  0  0  0
   -2.5749   -0.6437   -0.0000 C   0  0  0  0  0  0  0  0  0  0  0  0
    0.2971   -3.1939   -0.0000 C   0  0  0  0  0  0  0  0  0  0  0  0
   -2.3397   -3.0330   -0.0000 C   0  0  0  0  0  0  0  0  0  0  0  0
   -3.3425   -1.9312   -0.0000 C   0  0  0  0  0  0  0  0  0  0  0  0
   -4.1595   -0.1238   -0.0000 C   0  0  0  0  0  0  0  0  0  0  0  0
    0.2971   -4.6671   -0.0000 C   0  0  0  0  0  0  0  0  0  0  0  0
    1.5846   -2.4264   -0.0000 C   0  0  0  0  0  0  0  0  0  0  0  0
   -2.6616   -4.4814   -0.0000 O   0  0  0  0  0  0  0  0  0  0  0  0
   -4.5557   -1.3122   -0.0000 C   0  0  0  0  0  0  0  0  0  0  0  0
   -5.2365   -0.8542   -0.0000 C   0  0  0  0  0  0  0  0  0  0  0  0
   -4.4442    1.2379   -0.0000 C   0  0  0  0  0  0  0  0  0  0  0  0
    1.5722   -5.3727   -0.0000 C   0  0  0  0  0  0  0  0  0  0  0  0
    2.8597   -3.1692   -0.0000 C   0  0  0  0  0  0  0  0  0  0  0  0
   -5.8431   -1.9436   -0.0000 C   0  0  0  0  0  0  0  0  0  0  0  0
    2.8473   -4.6299   -0.0000 C   0  0  0  0  0  0  0  0  0  0  0  0
    1.5598   -6.8459   -0.0000 C   0  0  0  0  0  0  0  0  0  0  0  0
    4.1100   -5.3479   -0.0000 C   0  0  0  0  0  0  0  0  0  0  0  0
    2.8349   -7.5639   -0.0000 C   0  0  0  0  0  0  0  0  0  0  0  0
    4.0976   -6.7963   -0.0000 C   0  0  0  0  0  0  0  0  0  0  0  0
  1  2  2  0  0  0  0
  2  3  1  0  0  0  0
  4  2  1  6  0  0  0
  3  5  1  0  0  0  0
  3  6  1  0  0  0  0
  4  7  1  0  0  0  0
  4  8  1  0  0  0  0
  5  9  2  0  0  0  0
  5 10  1  0  0  0  0
  6 11  2  0  0  0  0
  7 12  1  6  0  0  0
  8 13  1  0  0  0  0
  8 14  1  0  0  0  0
  9 15  1  0  0  0  0
 10 16  2  0  0  0  0
 12 17  1  0  0  0  0
 15 18  1  0  0  0  0
 15 19  2  0  0  0  0
 18 20  2  0  0  0  0
 19 21  1  0  0  0  0
 20 22  1  0  0  0  0
  6  7  1  0  0  0  0
 12 14  1  0  0  0  0
 13 17  2  0  0  0  0
 16 18  1  0  0  0  0
 21 22  2  0  0  0  0
M  END
>  <MolRegNo>
300298

>  <m>
=

>  <Value>
284

>  <Unit>
nM

>  <Type>
Ki

>  <pValue>
6.55

>  <Ligand Efficiency>
0.41

>  <Binding Efficiency>
22.63

>  <Surface Efficiency>
17.51

>  <Assay Index>
235861

>  <Assay Category>


>  <Assay Organism>
Homo sapiens

>  <Target ID>
56

>  <Target Name>
Androgen Receptor

>  <Target Organism>
Homo sapiens

>  <Target Description>
Target is a single protein chain

>  <Sequence Accession>
P10275

>  <Reference>
Bioorg Med Chem Lett 15 (2), 389-393 (2005)

>  <Pubmed ID>
15603960

>  <DOI>
10.1016/j.bmcl.2004.10.051

$$$$
300196
Actelion Java MolfileCreator 1.0

 23 27  0  0  1  0  0  0  0  0999 V2000
    0.0000   -0.0000   -0.0000 O   0  0  0  0  0  0  0  0  0  0  0  0
   -1.1134   -0.9788   -0.0000 C   0  0  0  0  0  0  0  0  0  0  0  0
   -0.9788   -2.4471   -0.0000 N   0  0  0  0  0  0  0  0  0  0  0  0
   -2.5939   -0.6607   -0.0000 C   0  0  0  0  0  0  0  0  0  0  0  0
    0.2937   -3.1813   -0.0000 C   0  0  0  0  0  0  0  0  0  0  0  0
   -2.3615   -3.0467   -0.0000 C   0  0  0  0  0  0  0  0  0  0  0  0
   -3.3403   -1.9332   -0.0000 C   0  0  0  0  0  0  0  0  0  0  0  0
   -4.1601   -0.1346   -0.0000 C   0  0  0  0  0  0  0  0  0  0  0  0
    1.5662   -2.4349   -0.0000 C   0  0  0  0  0  0  0  0  0  0  0  0
    0.2937   -4.6618   -0.0000 C   0  0  0  0  0  0  0  0  0  0  0  0
   -2.6674   -4.4782   -0.0000 O   0  0  0  0  0  0  0  0  0  0  0  0
   -4.5639   -1.3092   -0.0000 C   0  0  0  0  0  0  0  0  0  0  0  0
   -5.2368   -0.8687   -0.0000 C   0  0  0  0  0  0  0  0  0  0  0  0
   -4.4415    1.2236   -0.0000 C   0  0  0  0  0  0  0  0  0  0  0  0
    2.8509   -3.1568   -0.0000 C   0  0  0  0  0  0  0  0  0  0  0  0
    1.5417   -0.9421   -0.0000 C   0  0  0  0  0  0  0  0  0  0  0  0
    1.5539   -5.3837   -0.0000 C   0  0  0  0  0  0  0  0  0  0  0  0
   -5.8486   -1.9332   -0.0000 C   0  0  0  0  0  0  0  0  0  0  0  0
    4.1234   -2.3982   -0.0000 N   0  0  0  0  0  0  0  0  0  0  0  0
    2.8387   -4.6373   -0.0000 C   0  0  0  0  0  0  0  0  0  0  0  0
    2.8019   -0.1835   -0.0000 C   0  0  0  0  0  0  0  0  0  0  0  0
    4.0867   -0.9054   -0.0000 C   0  0  0  0  0  0  0  0  0  0  0  0
    4.1112   -5.3592   -0.0000 O   0  0  0  0  0  0  0  0  0  0  0  0
  1  2  2  0  0  0  0
  2  3  1  0  0  0  0
  4  2  1  6  0  0  0
  3  5  1  0  0  0  0
  3  6  1  0  0  0  0
  4  7  1  0  0  0  0
  4  8  1  0  0  0  0
  5  9  1  0  0  0  0
  5 10  2  0  0  0  0
  6 11  2  0  0  0  0
  7 12  1  6  0  0  0
  8 13  1  0  0  0  0
  8 14  1  0  0  0  0
  9 15  1  0  0  0  0
  9 16  2  0  0  0  0
 10 17  1  0  0  0  0
 12 18  1  0  0  0  0
 15 19  2  0  0  0  0
 15 20  1  0  0  0  0
 16 21  1  0  0  0  0
 19 22  1  0  0  0  0
 20 23  1  0  0  0  0
  6  7  1  0  0  0  0
 12 14  1  0  0  0  0
 13 18  2  0  0  0  0
 17 20  2  0  0  0  0
 21 22  2  0  0  0  0
M  END
>  <MolRegNo>
300196

>  <m>
=

>  <Value>
162

>  <Unit>
nM

>  <Type>
Ki

>  <pValue>
6.79

>  <Ligand Efficiency>
0.4

>  <Binding Efficiency>
22.17

>  <Surface Efficiency>
9.63

>  <Assay Index>
235861

>  <Assay Category>


>  <Assay Organism>
Homo sapiens

>  <Target ID>
56

>  <Target Name>
Androgen Receptor

>  <Target Organism>
Homo sapiens

>  <Target Description>
Target is a single protein chain

>  <Sequence Accession>
P10275

>  <Reference>
Bioorg Med Chem Lett 15 (2), 389-393 (2005)

>  <Pubmed ID>
15603960

>  <DOI>
10.1016/j.bmcl.2004.10.051

$$$$
300280
Actelion Java MolfileCreator 1.0

 22 26  0  0  1  0  0  0  0  0999 V2000
    0.0000   -0.0000   -0.0000 O   0  0  0  0  0  0  0  0  0  0  0  0
   -1.1361   -0.9756   -0.0000 C   0  0  0  0  0  0  0  0  0  0  0  0
   -0.9879   -2.4451   -0.0000 N   0  0  0  0  0  0  0  0  0  0  0  0
   -2.5933   -0.6422   -0.0000 C   0  0  0  0  0  0  0  0  0  0  0  0
    0.2840   -3.1737   -0.0000 C   0  0  0  0  0  0  0  0  0  0  0  0
   -2.3463   -3.0379   -0.0000 C   0  0  0  0  0  0  0  0  0  0  0  0
   -3.3466   -1.9388   -0.0000 C   0  0  0  0  0  0  0  0  0  0  0  0
   -4.1740   -0.1358   -0.0000 C   0  0  0  0  0  0  0  0  0  0  0  0
    1.5560   -2.4204   -0.0000 C   0  0  0  0  0  0  0  0  0  0  0  0
    0.2717   -4.6432   -0.0000 C   0  0  0  0  0  0  0  0  0  0  0  0
   -2.6797   -4.4704   -0.0000 O   0  0  0  0  0  0  0  0  0  0  0  0
   -4.5691   -1.3213   -0.0000 C   0  0  0  0  0  0  0  0  0  0  0  0
   -4.4457    1.2226   -0.0000 C   0  0  0  0  0  0  0  0  0  0  0  0
   -5.2483   -0.8644   -0.0000 C   0  0  0  0  0  0  0  0  0  0  0  0
    2.8279   -3.1490   -0.0000 C   0  0  0  0  0  0  0  0  0  0  0  0
    1.5436   -5.3718   -0.0000 C   0  0  0  0  0  0  0  0  0  0  0  0
   -5.8535   -1.9388   -0.0000 C   0  0  0  0  0  0  0  0  0  0  0  0
    2.8156   -4.6185   -0.0000 C   0  0  0  0  0  0  0  0  0  0  0  0
    4.0999   -2.3957   -0.0000 C   0  0  0  0  0  0  0  0  0  0  0  0
    4.0875   -5.3471   -0.0000 C   0  0  0  0  0  0  0  0  0  0  0  0
    5.3718   -3.0996   -0.0000 C   0  0  0  0  0  0  0  0  0  0  0  0
    5.3718   -4.5938   -0.0000 C   0  0  0  0  0  0  0  0  0  0  0  0
  1  2  2  0  0  0  0
  2  3  1  0  0  0  0
  4  2  1  6  0  0  0
  3  5  1  0  0  0  0
  3  6  1  0  0  0  0
  4  7  1  0  0  0  0
  4  8  1  0  0  0  0
  5  9  2  0  0  0  0
  5 10  1  0  0  0  0
  6 11  2  0  0  0  0
  7 12  1  6  0  0  0
  8 13  1  0  0  0  0
  8 14  1  0  0  0  0
  9 15  1  0  0  0  0
 10 16  2  0  0  0  0
 12 17  1  0  0  0  0
 15 18  1  0  0  0  0
 15 19  2  0  0  0  0
 18 20  2  0  0  0  0
 19 21  1  0  0  0  0
 20 22  1  0  0  0  0
  6  7  1  0  0  0  0
 12 13  1  0  0  0  0
 14 17  1  0  0  0  0
 16 18  1  0  0  0  0
 21 22  2  0  0  0  0
M  END
>  <MolRegNo>
300280

>  <m>
=

>  <Value>
284

>  <Unit>
nM

>  <Type>
Ki

>  <pValue>
6.55

>  <Ligand Efficiency>
0.41

>  <Binding Efficiency>
22.47

>  <Surface Efficiency>
17.51

>  <Assay Index>
235861

>  <Assay Category>


>  <Assay Organism>
Homo sapiens

>  <Target ID>
56

>  <Target Name>
Androgen Receptor

>  <Target Organism>
Homo sapiens

>  <Target Description>
Target is a single protein chain

>  <Sequence Accession>
P10275

>  <Reference>
Bioorg Med Chem Lett 15 (2), 389-393 (2005)

>  <Pubmed ID>
15603960

>  <DOI>
10.1016/j.bmcl.2004.10.051

$$$$
300281
Actelion Java MolfileCreator 1.0

 21 24  0  0  1  0  0  0  0  0999 V2000
    0.0000   -0.0000   -0.0000 O   0  0  0  0  0  0  0  0  0  0  0  0
   -1.2964   -0.7216   -0.0000 N   0  0  0  0  0  0  0  0  0  0  0  0
   -1.3086   -2.1770   -0.0000 O   0  0  0  0  0  0  0  0  0  0  0  0
   -2.5806    0.0245   -0.0000 C   0  0  0  0  0  0  0  0  0  0  0  0
   -3.8647   -0.6971   -0.0000 C   0  0  0  0  0  0  0  0  0  0  0  0
   -2.5928    1.5043   -0.0000 C   0  0  0  0  0  0  0  0  0  0  0  0
   -5.1489    0.0489   -0.0000 C   0  0  0  0  0  0  0  0  0  0  0  0
   -3.8770    2.2626   -0.0000 C   0  0  0  0  0  0  0  0  0  0  0  0
   -5.1611    1.5288   -0.0000 C   0  0  0  0  0  0  0  0  0  0  0  0
   -6.4453    2.2870   -0.0000 N   0  0  0  0  0  0  0  0  0  0  0  0
   -6.6165    3.7669   -0.0000 C   0  0  0  0  0  0  0  0  0  0  0  0
   -7.7906    1.6878   -0.0000 C   0  0  0  0  0  0  0  0  0  0  0  0
   -5.5158    4.7575   -0.0000 O   0  0  0  0  0  0  0  0  0  0  0  0
   -8.0597    4.0971   -0.0000 C   0  0  0  0  0  0  0  0  0  0  0  0
   -8.0964    0.2691   -0.0000 O   0  0  0  0  0  0  0  0  0  0  0  0
   -8.7812    2.7885   -0.0000 C   0  0  0  0  0  0  0  0  0  0  0  0
   -9.6251    4.5985   -0.0000 C   0  0  0  0  0  0  0  0  0  0  0  0
   -9.9920    3.4000   -0.0000 C   0  0  0  0  0  0  0  0  0  0  0  0
  -10.6891    3.8770   -0.0000 C   0  0  0  0  0  0  0  0  0  0  0  0
   -9.8942    5.9438   -0.0000 C   0  0  0  0  0  0  0  0  0  0  0  0
  -11.2640    2.7885   -0.0000 C   0  0  0  0  0  0  0  0  0  0  0  0
  1  2  2  0  0  0  0
  2  3  1  0  0  0  0
  2  4  1  0  0  0  0
  4  5  2  0  0  0  0
  4  6  1  0  0  0  0
  5  7  1  0  0  0  0
  6  8  2  0  0  0  0
  7  9  2  0  0  0  0
  9 10  1  0  0  0  0
 10 11  1  0  0  0  0
 10 12  1  0  0  0  0
 11 13  2  0  0  0  0
 14 11  1  6  0  0  0
 12 15  2  0  0  0  0
 16 12  1  6  0  0  0
 14 17  1  0  0  0  0
 16 18  1  0  0  0  0
 17 19  1  0  0  0  0
 17 20  1  0  0  0  0
 18 21  1  0  0  0  0
  8  9  1  0  0  0  0
 14 16  1  0  0  0  0
 18 20  1  0  0  0  0
 19 21  2  0  0  0  0
M  CHG  2   2   1   3  -1
M  END
>  <MolRegNo>
300281

>  <m>
=

>  <Value>
192

>  <Unit>
nM

>  <Type>
Ki

>  <pValue>
6.72

>  <Ligand Efficiency>
0.44

>  <Binding Efficiency>
23.63

>  <Surface Efficiency>
8.34

>  <Assay Index>
235861

>  <Assay Category>


>  <Assay Organism>
Homo sapiens

>  <Target ID>
56

>  <Target Name>
Androgen Receptor

>  <Target Organism>
Homo sapiens

>  <Target Description>
Target is a single protein chain

>  <Sequence Accession>
P10275

>  <Reference>
Bioorg Med Chem Lett 15 (2), 389-393 (2005)

>  <Pubmed ID>
15603960

>  <DOI>
10.1016/j.bmcl.2004.10.051

$$$$
300069
Actelion Java MolfileCreator 1.0

 22 25  0  0  1  0  0  0  0  0999 V2000
    0.0000   -0.0000   -0.0000 F   0  0  0  0  0  0  0  0  0  0  0  0
   -1.1460   -0.6705   -0.0000 C   0  0  0  0  0  0  0  0  0  0  0  0
    0.2682   -1.2070   -0.0000 F   0  0  0  0  0  0  0  0  0  0  0  0
   -0.9387    0.8656   -0.0000 F   0  0  0  0  0  0  0  0  0  0  0  0
   -2.4383   -1.3776   -0.0000 C   0  0  0  0  0  0  0  0  0  0  0  0
   -3.7428   -0.6340   -0.0000 C   0  0  0  0  0  0  0  0  0  0  0  0
   -2.4505   -2.8406   -0.0000 C   0  0  0  0  0  0  0  0  0  0  0  0
   -5.0229   -1.3532   -0.0000 C   0  0  0  0  0  0  0  0  0  0  0  0
   -3.7550   -3.5599   -0.0000 C   0  0  0  0  0  0  0  0  0  0  0  0
   -6.3030   -0.6096   -0.0000 N   0  0  0  0  0  0  0  0  0  0  0  0
   -5.0351   -2.8284   -0.0000 C   0  0  0  0  0  0  0  0  0  0  0  0
   -6.4736    0.8656   -0.0000 C   0  0  0  0  0  0  0  0  0  0  0  0
   -7.6562   -1.1948   -0.0000 C   0  0  0  0  0  0  0  0  0  0  0  0
   -5.3642    1.8775   -0.0000 O   0  0  0  0  0  0  0  0  0  0  0  0
   -7.9122    1.1948   -0.0000 C   0  0  0  0  0  0  0  0  0  0  0  0
   -7.9854   -2.6212   -0.0000 O   0  0  0  0  0  0  0  0  0  0  0  0
   -8.6559   -0.0853   -0.0000 C   0  0  0  0  0  0  0  0  0  0  0  0
   -9.4727    1.7190   -0.0000 C   0  0  0  0  0  0  0  0  0  0  0  0
   -9.8750    0.5242   -0.0000 C   0  0  0  0  0  0  0  0  0  0  0  0
  -10.5456    0.9997   -0.0000 C   0  0  0  0  0  0  0  0  0  0  0  0
   -9.7409    3.0722   -0.0000 C   0  0  0  0  0  0  0  0  0  0  0  0
  -11.1430   -0.1097   -0.0000 C   0  0  0  0  0  0  0  0  0  0  0  0
  1  2  1  0  0  0  0
  2  3  1  0  0  0  0
  2  4  1  0  0  0  0
  2  5  1  0  0  0  0
  5  6  2  0  0  0  0
  5  7  1  0  0  0  0
  6  8  1  0  0  0  0
  7  9  2  0  0  0  0
  8 10  1  0  0  0  0
  8 11  2  0  0  0  0
 10 12  1  0  0  0  0
 10 13  1  0  0  0  0
 12 14  2  0  0  0  0
 15 12  1  6  0  0  0
 13 16  2  0  0  0  0
 17 13  1  6  0  0  0
 15 18  1  0  0  0  0
 17 19  1  0  0  0  0
 18 20  1  0  0  0  0
 18 21  1  0  0  0  0
 19 22  1  0  0  0  0
  9 11  1  0  0  0  0
 15 17  1  0  0  0  0
 19 21  1  0  0  0  0
 20 22  2  0  0  0  0
M  END
>  <MolRegNo>
300069

>  <m>
=

>  <Value>
632

>  <Unit>
nM

>  <Type>
Ki

>  <pValue>
6.2

>  <Ligand Efficiency>
0.38

>  <Binding Efficiency>
20.18

>  <Surface Efficiency>
16.58

>  <Assay Index>
235861

>  <Assay Category>


>  <Assay Organism>
Homo sapiens

>  <Target ID>
56

>  <Target Name>
Androgen Receptor

>  <Target Organism>
Homo sapiens

>  <Target Description>
Target is a single protein chain

>  <Sequence Accession>
P10275

>  <Reference>
Bioorg Med Chem Lett 15 (2), 389-393 (2005)

>  <Pubmed ID>
15603960

>  <DOI>
10.1016/j.bmcl.2004.10.051

$$$$
305294
Actelion Java MolfileCreator 1.0

 21 24  0  0  1  0  0  0  0  0999 V2000
    0.0000   -0.0000   -0.0000 Cl  0  0  0  0  0  0  0  0  0  0  0  0
   -1.2919   -0.7365   -0.0000 C   0  0  0  0  0  0  0  0  0  0  0  0
   -1.3040   -2.2095   -0.0000 C   0  0  0  0  0  0  0  0  0  0  0  0
   -2.5838    0.0362   -0.0000 C   0  0  0  0  0  0  0  0  0  0  0  0
   -0.0362   -2.9460   -0.0000 Cl  0  0  0  0  0  0  0  0  0  0  0  0
   -2.5959   -2.9339   -0.0000 C   0  0  0  0  0  0  0  0  0  0  0  0
   -3.8757   -0.7003   -0.0000 C   0  0  0  0  0  0  0  0  0  0  0  0
   -3.8878   -2.1854   -0.0000 C   0  0  0  0  0  0  0  0  0  0  0  0
   -5.1918    0.0604   -0.0000 N   0  0  0  0  0  0  0  0  0  0  0  0
   -6.6044   -0.3984   -0.0000 C   0  0  0  0  0  0  0  0  0  0  0  0
   -5.2038    1.5575   -0.0000 C   0  0  0  0  0  0  0  0  0  0  0  0
   -7.0873   -1.8111   -0.0000 O   0  0  0  0  0  0  0  0  0  0  0  0
   -7.4979    0.8210   -0.0000 C   0  0  0  0  0  0  0  0  0  0  0  0
   -3.9964    2.4510   -0.0000 O   0  0  0  0  0  0  0  0  0  0  0  0
   -6.6165    2.0163   -0.0000 C   0  0  0  0  0  0  0  0  0  0  0  0
   -8.9709    1.3281   -0.0000 C   0  0  0  0  0  0  0  0  0  0  0  0
   -8.0533    2.4993   -0.0000 C   0  0  0  0  0  0  0  0  0  0  0  0
  -10.4439    1.0504   -0.0000 C   0  0  0  0  0  0  0  0  0  0  0  0
   -9.2727    2.8011   -0.0000 C   0  0  0  0  0  0  0  0  0  0  0  0
   -9.5263    2.2216   -0.0000 C   0  0  0  0  0  0  0  0  0  0  0  0
   -8.4758    4.0447   -0.0000 C   0  0  0  0  0  0  0  0  0  0  0  0
  1  2  1  0  0  0  0
  2  3  2  0  0  0  0
  2  4  1  0  0  0  0
  3  5  1  0  0  0  0
  3  6  1  0  0  0  0
  4  7  2  0  0  0  0
  6  8  2  0  0  0  0
  7  9  1  0  0  0  0
  9 10  1  0  0  0  0
  9 11  1  0  0  0  0
 10 12  2  0  0  0  0
 13 10  1  6  0  0  0
 11 14  2  0  0  0  0
 11 15  1  0  0  0  0
 13 16  1  0  0  0  0
 15 17  1  6  0  0  0
 16 18  1  0  0  0  0
 16 19  1  0  0  0  0
 17 20  1  0  0  0  0
 17 21  1  0  0  0  0
  7  8  1  0  0  0  0
 13 15  1  0  0  0  0
 18 20  2  0  0  0  0
 19 21  1  0  0  0  0
M  END
>  <MolRegNo>
305294

>  <m>
=

>  <Value>
83

>  <Unit>
nM

>  <Type>
Ki

>  <pValue>
7.08

>  <Ligand Efficiency>
0.46

>  <Binding Efficiency>
21.98

>  <Surface Efficiency>
18.94

>  <Assay Index>
235559

>  <Assay Category>


>  <Assay Organism>
Homo sapiens

>  <Target ID>
56

>  <Target Name>
Androgen Receptor

>  <Target Organism>
Homo sapiens

>  <Target Description>
Target is a single protein chain

>  <Sequence Accession>
P10275

>  <Reference>
Bioorg Med Chem Lett 15 (2), 271-276 (2005)

>  <Pubmed ID>
15603938

>  <DOI>
10.1016/j.bmcl.2004.10.085

$$$$
305315
Actelion Java MolfileCreator 1.0

 20 23  0  0  1  0  0  0  0  0999 V2000
    0.0000   -0.0000   -0.0000 Cl  0  0  0  0  0  0  0  0  0  0  0  0
   -1.2744   -0.7348   -0.0000 C   0  0  0  0  0  0  0  0  0  0  0  0
   -1.2859   -2.1814   -0.0000 C   0  0  0  0  0  0  0  0  0  0  0  0
   -2.5718   -0.0000   -0.0000 C   0  0  0  0  0  0  0  0  0  0  0  0
   -0.0344   -2.9162   -0.0000 Cl  0  0  0  0  0  0  0  0  0  0  0  0
   -2.5832   -2.8932   -0.0000 C   0  0  0  0  0  0  0  0  0  0  0  0
   -3.8462   -0.7118   -0.0000 C   0  0  0  0  0  0  0  0  0  0  0  0
   -3.8577   -2.1584   -0.0000 C   0  0  0  0  0  0  0  0  0  0  0  0
   -5.1206    0.0230   -0.0000 N   0  0  0  0  0  0  0  0  0  0  0  0
   -5.1321    1.4925   -0.0000 C   0  0  0  0  0  0  0  0  0  0  0  0
   -6.5213   -0.4018   -0.0000 C   0  0  0  0  0  0  0  0  0  0  0  0
   -3.9495    2.3651   -0.0000 O   0  0  0  0  0  0  0  0  0  0  0  0
   -6.5327    1.9633   -0.0000 C   0  0  0  0  0  0  0  0  0  0  0  0
   -6.9690   -1.7796   -0.0000 O   0  0  0  0  0  0  0  0  0  0  0  0
   -7.3709    0.7807   -0.0000 C   0  0  0  0  0  0  0  0  0  0  0  0
   -7.9334    2.4110   -0.0000 C   0  0  0  0  0  0  0  0  0  0  0  0
   -8.8175    1.2744   -0.0000 C   0  0  0  0  0  0  0  0  0  0  0  0
   -9.3571    2.1355   -0.0000 C   0  0  0  0  0  0  0  0  0  0  0  0
   -8.9208    3.5017   -0.0000 C   0  0  0  0  0  0  0  0  0  0  0  0
  -10.2641    0.9989   -0.0000 C   0  0  0  0  0  0  0  0  0  0  0  0
  1  2  1  0  0  0  0
  2  3  2  0  0  0  0
  2  4  1  0  0  0  0
  3  5  1  0  0  0  0
  3  6  1  0  0  0  0
  4  7  2  0  0  0  0
  6  8  2  0  0  0  0
  7  9  1  0  0  0  0
  9 10  1  0  0  0  0
  9 11  1  0  0  0  0
 10 12  2  0  0  0  0
 10 13  1  0  0  0  0
 11 14  2  0  0  0  0
 15 11  1  6  0  0  0
 13 16  1  6  0  0  0
 15 17  1  0  0  0  0
 16 18  1  0  0  0  0
 16 19  1  0  0  0  0
 17 20  1  0  0  0  0
  7  8  1  0  0  0  0
 13 15  1  0  0  0  0
 17 19  1  0  0  0  0
 18 20  2  0  0  0  0
M  END
>  <MolRegNo>
305315

>  <m>
=

>  <Value>
158

>  <Unit>
nM

>  <Type>
Ki

>  <pValue>
6.8

>  <Ligand Efficiency>
0.46

>  <Binding Efficiency>
22.07

>  <Surface Efficiency>
18.2

>  <Assay Index>
235559

>  <Assay Category>


>  <Assay Organism>
Homo sapiens

>  <Target ID>
56

>  <Target Name>
Androgen Receptor

>  <Target Organism>
Homo sapiens

>  <Target Description>
Target is a single protein chain

>  <Sequence Accession>
P10275

>  <Reference>
Bioorg Med Chem Lett 15 (2), 271-276 (2005)

>  <Pubmed ID>
15603938

>  <DOI>
10.1016/j.bmcl.2004.10.085

$$$$
305331
Actelion Java MolfileCreator 1.0

 26 30  0  0  1  0  0  0  0  0999 V2000
    0.0000   -0.0000   -0.0000 O   0  0  0  0  0  0  0  0  0  0  0  0
   -1.2763   -0.7104   -0.0000 N   0  0  0  0  0  0  0  0  0  0  0  0
   -1.2884   -2.1794   -0.0000 O   0  0  0  0  0  0  0  0  0  0  0  0
   -2.5888    0.0361   -0.0000 C   0  0  0  0  0  0  0  0  0  0  0  0
   -2.6009    1.5412   -0.0000 C   0  0  0  0  0  0  0  0  0  0  0  0
   -3.8772   -0.6863   -0.0000 C   0  0  0  0  0  0  0  0  0  0  0  0
   -3.8892    2.2998   -0.0000 C   0  0  0  0  0  0  0  0  0  0  0  0
   -1.3125    2.2998   -0.0000 C   0  0  0  0  0  0  0  0  0  0  0  0
   -5.1656    0.0602   -0.0000 C   0  0  0  0  0  0  0  0  0  0  0  0
   -5.1776    1.5653   -0.0000 C   0  0  0  0  0  0  0  0  0  0  0  0
   -3.9133    3.8170   -0.0000 C   0  0  0  0  0  0  0  0  0  0  0  0
   -1.3245    3.8170   -0.0000 C   0  0  0  0  0  0  0  0  0  0  0  0
   -6.4780    2.3239   -0.0000 N   0  0  0  0  0  0  0  0  0  0  0  0
   -2.6611    4.5515   -0.0000 C   0  0  0  0  0  0  0  0  0  0  0  0
   -7.8989    1.8904   -0.0000 C   0  0  0  0  0  0  0  0  0  0  0  0
   -6.4901    3.8411   -0.0000 C   0  0  0  0  0  0  0  0  0  0  0  0
   -8.3685    0.4816   -0.0000 O   0  0  0  0  0  0  0  0  0  0  0  0
   -8.7899    3.0945   -0.0000 C   0  0  0  0  0  0  0  0  0  0  0  0
   -5.2980    4.7201   -0.0000 O   0  0  0  0  0  0  0  0  0  0  0  0
   -7.9109    4.3107   -0.0000 C   0  0  0  0  0  0  0  0  0  0  0  0
  -10.2469    3.6003   -0.0000 C   0  0  0  0  0  0  0  0  0  0  0  0
   -9.3438    4.7682   -0.0000 C   0  0  0  0  0  0  0  0  0  0  0  0
  -11.7400    3.3354   -0.0000 C   0  0  0  0  0  0  0  0  0  0  0  0
  -10.5840    5.0693   -0.0000 C   0  0  0  0  0  0  0  0  0  0  0  0
  -10.8008    4.4913   -0.0000 C   0  0  0  0  0  0  0  0  0  0  0  0
   -9.7532    6.3095   -0.0000 C   0  0  0  0  0  0  0  0  0  0  0  0
  1  2  2  0  0  0  0
  2  3  1  0  0  0  0
  2  4  1  0  0  0  0
  4  5  1  0  0  0  0
  4  6  2  0  0  0  0
  5  7  1  0  0  0  0
  5  8  2  0  0  0  0
  6  9  1  0  0  0  0
  7 10  1  0  0  0  0
  7 11  2  0  0  0  0
  8 12  1  0  0  0  0
 10 13  1  0  0  0  0
 11 14  1  0  0  0  0
 13 15  1  0  0  0  0
 13 16  1  0  0  0  0
 15 17  2  0  0  0  0
 18 15  1  6  0  0  0
 16 19  2  0  0  0  0
 16 20  1  0  0  0  0
 18 21  1  0  0  0  0
 20 22  1  6  0  0  0
 21 23  1  0  0  0  0
 21 24  1  0  0  0  0
 22 25  1  0  0  0  0
 22 26  1  0  0  0  0
  9 10  2  0  0  0  0
 12 14  2  0  0  0  0
 18 20  1  0  0  0  0
 23 25  2  0  0  0  0
 24 26  1  0  0  0  0
M  CHG  2   2   1   3  -1
M  END
>  <MolRegNo>
305331

>  <m>
=

>  <Value>
19

>  <Unit>
nM

>  <Type>
Ki

>  <pValue>
7.72

>  <Ligand Efficiency>
0.41

>  <Binding Efficiency>
22.16

>  <Surface Efficiency>
9.59

>  <Assay Index>
235559

>  <Assay Category>


>  <Assay Organism>
Homo sapiens

>  <Target ID>
56

>  <Target Name>
Androgen Receptor

>  <Target Organism>
Homo sapiens

>  <Target Description>
Target is a single protein chain

>  <Sequence Accession>
P10275

>  <Reference>
Bioorg Med Chem Lett 15 (2), 271-276 (2005)

>  <Pubmed ID>
15603938

>  <DOI>
10.1016/j.bmcl.2004.10.085

$$$$
305351
Actelion Java MolfileCreator 1.0

 23 26  0  0  1  0  0  0  0  0999 V2000
    0.0000   -0.0000   -0.0000 F   0  0  0  0  0  0  0  0  0  0  0  0
   -1.2970   -0.7496   -0.0000 C   0  0  0  0  0  0  0  0  0  0  0  0
   -2.0585    0.5592   -0.0000 F   0  0  0  0  0  0  0  0  0  0  0  0
   -0.5592   -2.0347   -0.0000 F   0  0  0  0  0  0  0  0  0  0  0  0
   -2.6058   -1.4873   -0.0000 C   0  0  0  0  0  0  0  0  0  0  0  0
   -3.9028   -0.7377   -0.0000 C   0  0  0  0  0  0  0  0  0  0  0  0
   -2.6177   -2.9628   -0.0000 C   0  0  0  0  0  0  0  0  0  0  0  0
   -5.1997   -1.4635   -0.0000 C   0  0  0  0  0  0  0  0  0  0  0  0
   -3.9147   -3.6886   -0.0000 C   0  0  0  0  0  0  0  0  0  0  0  0
   -6.5086   -0.7139   -0.0000 N   0  0  0  0  0  0  0  0  0  0  0  0
   -5.2116   -2.9390   -0.0000 C   0  0  0  0  0  0  0  0  0  0  0  0
   -7.9126   -1.1542   -0.0000 C   0  0  0  0  0  0  0  0  0  0  0  0
   -6.5205    0.7972   -0.0000 C   0  0  0  0  0  0  0  0  0  0  0  0
   -8.4005   -2.5582   -0.0000 O   0  0  0  0  0  0  0  0  0  0  0  0
   -8.8051    0.0714   -0.0000 C   0  0  0  0  0  0  0  0  0  0  0  0
   -5.3187    1.6896   -0.0000 O   0  0  0  0  0  0  0  0  0  0  0  0
   -7.9245    1.2613   -0.0000 C   0  0  0  0  0  0  0  0  0  0  0  0
  -10.2805    0.5711   -0.0000 C   0  0  0  0  0  0  0  0  0  0  0  0
   -9.3524    1.7491   -0.0000 C   0  0  0  0  0  0  0  0  0  0  0  0
  -11.7559    0.2737   -0.0000 C   0  0  0  0  0  0  0  0  0  0  0  0
  -10.5899    2.0228   -0.0000 C   0  0  0  0  0  0  0  0  0  0  0  0
  -10.8278    1.4516   -0.0000 C   0  0  0  0  0  0  0  0  0  0  0  0
   -9.7689    3.2721   -0.0000 C   0  0  0  0  0  0  0  0  0  0  0  0
  1  2  1  0  0  0  0
  2  3  1  0  0  0  0
  2  4  1  0  0  0  0
  2  5  1  0  0  0  0
  5  6  2  0  0  0  0
  5  7  1  0  0  0  0
  6  8  1  0  0  0  0
  7  9  2  0  0  0  0
  8 10  1  0  0  0  0
  8 11  2  0  0  0  0
 10 12  1  0  0  0  0
 10 13  1  0  0  0  0
 12 14  2  0  0  0  0
 15 12  1  6  0  0  0
 13 16  2  0  0  0  0
 13 17  1  0  0  0  0
 15 18  1  0  0  0  0
 17 19  1  6  0  0  0
 18 20  1  0  0  0  0
 18 21  1  0  0  0  0
 19 22  1  0  0  0  0
 19 23  1  0  0  0  0
  9 11  1  0  0  0  0
 15 17  1  0  0  0  0
 20 22  2  0  0  0  0
 21 23  1  0  0  0  0
M  END
>  <MolRegNo>
305351

>  <m>
=

>  <Value>
100

>  <Unit>
nM

>  <Type>
Ki

>  <pValue>
7

>  <Ligand Efficiency>
0.42

>  <Binding Efficiency>
21.79

>  <Surface Efficiency>
18.73

>  <Assay Index>
235559

>  <Assay Category>


>  <Assay Organism>
Homo sapiens

>  <Target ID>
56

>  <Target Name>
Androgen Receptor

>  <Target Organism>
Homo sapiens

>  <Target Description>
Target is a single protein chain

>  <Sequence Accession>
P10275

>  <Reference>
Bioorg Med Chem Lett 15 (2), 271-276 (2005)

>  <Pubmed ID>
15603938

>  <DOI>
10.1016/j.bmcl.2004.10.085

$$$$
305366
Actelion Java MolfileCreator 1.0

 27 31  0  0  1  0  0  0  0  0999 V2000
    0.0000   -0.0000   -0.0000 O   0  0  0  0  0  0  0  0  0  0  0  0
   -1.2864   -0.7301   -0.0000 N   0  0  0  0  0  0  0  0  0  0  0  0
   -1.3096   -2.1904   -0.0000 O   0  0  0  0  0  0  0  0  0  0  0  0
   -2.5961    0.0348   -0.0000 C   0  0  0  0  0  0  0  0  0  0  0  0
   -2.6076    1.5182   -0.0000 C   0  0  0  0  0  0  0  0  0  0  0  0
   -3.8825   -0.6954   -0.0000 C   0  0  0  0  0  0  0  0  0  0  0  0
   -3.8941    2.2600   -0.0000 C   0  0  0  0  0  0  0  0  0  0  0  0
   -1.3444    2.2600   -0.0000 C   0  0  0  0  0  0  0  0  0  0  0  0
   -5.1689    0.0464   -0.0000 C   0  0  0  0  0  0  0  0  0  0  0  0
   -5.1805    1.5414   -0.0000 C   0  0  0  0  0  0  0  0  0  0  0  0
   -3.9173    3.7434   -0.0000 C   0  0  0  0  0  0  0  0  0  0  0  0
   -1.3560    3.7434   -0.0000 C   0  0  0  0  0  0  0  0  0  0  0  0
   -6.4785    2.2831   -0.0000 N   0  0  0  0  0  0  0  0  0  0  0  0
   -2.6540    4.4851   -0.0000 C   0  0  0  0  0  0  0  0  0  0  0  0
   -7.8809    1.8543   -0.0000 C   0  0  0  0  0  0  0  0  0  0  0  0
   -6.4901    3.7666   -0.0000 C   0  0  0  0  0  0  0  0  0  0  0  0
   -8.3560    0.4636   -0.0000 O   0  0  0  0  0  0  0  0  0  0  0  0
   -8.7617    3.0480   -0.0000 C   0  0  0  0  0  0  0  0  0  0  0  0
   -5.3080    4.6474   -0.0000 O   0  0  0  0  0  0  0  0  0  0  0  0
   -7.8925    4.2418   -0.0000 C   0  0  0  0  0  0  0  0  0  0  0  0
  -10.2220    3.5464   -0.0000 C   0  0  0  0  0  0  0  0  0  0  0  0
   -9.3064    4.6938   -0.0000 C   0  0  0  0  0  0  0  0  0  0  0  0
  -11.6706    3.2682   -0.0000 C   0  0  0  0  0  0  0  0  0  0  0  0
  -10.5233    5.0067   -0.0000 C   0  0  0  0  0  0  0  0  0  0  0  0
  -10.7667    4.4156   -0.0000 C   0  0  0  0  0  0  0  0  0  0  0  0
   -9.6309    6.1540   -0.0000 C   0  0  0  0  0  0  0  0  0  0  0  0
  -11.6243    6.0034   -0.0000 C   0  0  0  0  0  0  0  0  0  0  0  0
  1  2  2  0  0  0  0
  2  3  1  0  0  0  0
  2  4  1  0  0  0  0
  4  5  1  0  0  0  0
  4  6  2  0  0  0  0
  5  7  1  0  0  0  0
  5  8  2  0  0  0  0
  6  9  1  0  0  0  0
  7 10  1  0  0  0  0
  7 11  2  0  0  0  0
  8 12  1  0  0  0  0
 10 13  1  0  0  0  0
 11 14  1  0  0  0  0
 13 15  1  0  0  0  0
 13 16  1  0  0  0  0
 15 17  2  0  0  0  0
 18 15  1  6  0  0  0
 16 19  2  0  0  0  0
 16 20  1  0  0  0  0
 18 21  1  0  0  0  0
 20 22  1  6  0  0  0
 21 23  1  0  0  0  0
 21 24  1  0  0  0  0
 22 25  1  0  0  0  0
 22 26  1  0  0  0  0
 24 27  1  0  0  0  0
  9 10  2  0  0  0  0
 12 14  2  0  0  0  0
 18 20  1  0  0  0  0
 23 25  2  0  0  0  0
 26 27  1  0  0  0  0
M  CHG  2   2   1   3  -1
M  END
>  <MolRegNo>
305366

>  <m>
=

>  <Value>
9

>  <Unit>
nM

>  <Type>
Ki

>  <pValue>
8.05

>  <Ligand Efficiency>
0.41

>  <Binding Efficiency>
22.2

>  <Surface Efficiency>
9.99

>  <Assay Index>
235559

>  <Assay Category>


>  <Assay Organism>
Homo sapiens

>  <Target ID>
56

>  <Target Name>
Androgen Receptor

>  <Target Organism>
Homo sapiens

>  <Target Description>
Target is a single protein chain

>  <Sequence Accession>
P10275

>  <Reference>
Bioorg Med Chem Lett 15 (2), 271-276 (2005)

>  <Pubmed ID>
15603938

>  <DOI>
10.1016/j.bmcl.2004.10.085

$$$$
305378
Actelion Java MolfileCreator 1.0

 24 27  0  0  1  0  0  0  0  0999 V2000
    0.0000   -0.0000   -0.0000 F   0  0  0  0  0  0  0  0  0  0  0  0
   -1.2787    0.7391   -0.0000 C   0  0  0  0  0  0  0  0  0  0  0  0
   -1.2905    2.2290   -0.0000 F   0  0  0  0  0  0  0  0  0  0  0  0
   -0.2464    1.8067   -0.0000 F   0  0  0  0  0  0  0  0  0  0  0  0
   -2.5575    0.0235   -0.0000 C   0  0  0  0  0  0  0  0  0  0  0  0
   -3.8362    0.7626   -0.0000 C   0  0  0  0  0  0  0  0  0  0  0  0
   -2.5692   -1.4313   -0.0000 C   0  0  0  0  0  0  0  0  0  0  0  0
   -5.1150    0.0469   -0.0000 C   0  0  0  0  0  0  0  0  0  0  0  0
   -3.8480   -2.1586   -0.0000 C   0  0  0  0  0  0  0  0  0  0  0  0
   -6.4055    0.7860   -0.0000 N   0  0  0  0  0  0  0  0  0  0  0  0
   -5.1267   -1.4078   -0.0000 C   0  0  0  0  0  0  0  0  0  0  0  0
   -7.8133    0.3519   -0.0000 C   0  0  0  0  0  0  0  0  0  0  0  0
   -6.4172    2.2877   -0.0000 C   0  0  0  0  0  0  0  0  0  0  0  0
   -8.2943   -1.0324   -0.0000 O   0  0  0  0  0  0  0  0  0  0  0  0
   -8.6931    1.5720   -0.0000 C   0  0  0  0  0  0  0  0  0  0  0  0
   -5.2440    3.1793   -0.0000 O   0  0  0  0  0  0  0  0  0  0  0  0
   -7.8250    2.7569   -0.0000 C   0  0  0  0  0  0  0  0  0  0  0  0
  -10.1479    2.0648   -0.0000 C   0  0  0  0  0  0  0  0  0  0  0  0
   -9.2328    3.2262   -0.0000 C   0  0  0  0  0  0  0  0  0  0  0  0
  -10.4764    3.4960   -0.0000 C   0  0  0  0  0  0  0  0  0  0  0  0
  -11.6026    1.7715   -0.0000 C   0  0  0  0  0  0  0  0  0  0  0  0
   -9.5613    4.6927   -0.0000 C   0  0  0  0  0  0  0  0  0  0  0  0
  -10.6875    2.9212   -0.0000 C   0  0  0  0  0  0  0  0  0  0  0  0
  -11.5557    4.5167   -0.0000 C   0  0  0  0  0  0  0  0  0  0  0  0
  1  2  1  0  0  0  0
  2  3  1  0  0  0  0
  2  4  1  0  0  0  0
  2  5  1  0  0  0  0
  5  6  2  0  0  0  0
  5  7  1  0  0  0  0
  6  8  1  0  0  0  0
  7  9  2  0  0  0  0
  8 10  1  0  0  0  0
  8 11  2  0  0  0  0
 10 12  1  0  0  0  0
 10 13  1  0  0  0  0
 12 14  2  0  0  0  0
 15 12  1  6  0  0  0
 13 16  2  0  0  0  0
 13 17  1  0  0  0  0
 15 18  1  0  0  0  0
 17 19  1  6  0  0  0
 18 20  1  0  0  0  0
 18 21  1  0  0  0  0
 19 22  1  0  0  0  0
 19 23  1  0  0  0  0
 20 24  1  0  0  0  0
  9 11  1  0  0  0  0
 15 17  1  0  0  0  0
 21 23  1  0  0  0  0
 22 24  1  0  0  0  0
M  END
>  <MolRegNo>
305378

>  <m>
=

>  <Value>
2810

>  <Unit>
nM

>  <Type>
Ki

>  <pValue>
5.55

>  <Ligand Efficiency>
0.32

>  <Binding Efficiency>
16.46

>  <Surface Efficiency>
14.85

>  <Assay Index>
235559

>  <Assay Category>


>  <Assay Organism>
Homo sapiens

>  <Target ID>
56

>  <Target Name>
Androgen Receptor

>  <Target Organism>
Homo sapiens

>  <Target Description>
Target is a single protein chain

>  <Sequence Accession>
P10275

>  <Reference>
Bioorg Med Chem Lett 15 (2), 271-276 (2005)

>  <Pubmed ID>
15603938

>  <DOI>
10.1016/j.bmcl.2004.10.085

$$$$
305233
Actelion Java MolfileCreator 1.0

 27 32  0  0  1  0  0  0  0  0999 V2000
    0.0000   -0.0000   -0.0000 O   0  0  0  0  0  0  0  0  0  0  0  0
   -1.3017   -0.7245   -0.0000 N   0  0  0  0  0  0  0  0  0  0  0  0
   -1.3139   -2.1858   -0.0000 O   0  0  0  0  0  0  0  0  0  0  0  0
   -2.5788    0.0246   -0.0000 C   0  0  0  0  0  0  0  0  0  0  0  0
   -2.5911    1.5104   -0.0000 C   0  0  0  0  0  0  0  0  0  0  0  0
   -3.8559   -0.7000   -0.0000 C   0  0  0  0  0  0  0  0  0  0  0  0
   -3.8682    2.2841   -0.0000 C   0  0  0  0  0  0  0  0  0  0  0  0
   -1.3385    2.2841   -0.0000 C   0  0  0  0  0  0  0  0  0  0  0  0
   -5.1330    0.0491   -0.0000 C   0  0  0  0  0  0  0  0  0  0  0  0
   -5.1453    1.5595   -0.0000 C   0  0  0  0  0  0  0  0  0  0  0  0
   -3.8927    3.7699   -0.0000 C   0  0  0  0  0  0  0  0  0  0  0  0
   -1.3508    3.7699   -0.0000 C   0  0  0  0  0  0  0  0  0  0  0  0
   -6.4347    2.3086   -0.0000 N   0  0  0  0  0  0  0  0  0  0  0  0
   -2.6402    4.5190   -0.0000 C   0  0  0  0  0  0  0  0  0  0  0  0
   -7.8469    1.8543   -0.0000 C   0  0  0  0  0  0  0  0  0  0  0  0
   -6.4469    3.7945   -0.0000 C   0  0  0  0  0  0  0  0  0  0  0  0
   -8.3135    0.4666   -0.0000 O   0  0  0  0  0  0  0  0  0  0  0  0
   -8.7310    3.0700   -0.0000 C   0  0  0  0  0  0  0  0  0  0  0  0
   -5.2681    4.6786   -0.0000 O   0  0  0  0  0  0  0  0  0  0  0  0
   -7.8591    4.2488   -0.0000 C   0  0  0  0  0  0  0  0  0  0  0  0
  -10.1923    3.5735   -0.0000 C   0  0  0  0  0  0  0  0  0  0  0  0
   -9.2713    4.7278   -0.0000 C   0  0  0  0  0  0  0  0  0  0  0  0
  -11.6413    3.2910   -0.0000 C   0  0  0  0  0  0  0  0  0  0  0  0
  -10.4993    5.0348   -0.0000 C   0  0  0  0  0  0  0  0  0  0  0  0
  -10.7326    4.4330   -0.0000 C   0  0  0  0  0  0  0  0  0  0  0  0
   -9.7625    6.2996   -0.0000 C   0  0  0  0  0  0  0  0  0  0  0  0
  -11.6045    6.0294   -0.0000 C   0  0  0  0  0  0  0  0  0  0  0  0
  1  2  2  0  0  0  0
  2  3  1  0  0  0  0
  2  4  1  0  0  0  0
  4  5  1  0  0  0  0
  4  6  2  0  0  0  0
  5  7  1  0  0  0  0
  5  8  2  0  0  0  0
  6  9  1  0  0  0  0
  7 10  1  0  0  0  0
  7 11  2  0  0  0  0
  8 12  1  0  0  0  0
 10 13  1  0  0  0  0
 11 14  1  0  0  0  0
 13 15  1  0  0  0  0
 13 16  1  0  0  0  0
 15 17  2  0  0  0  0
 18 15  1  6  0  0  0
 16 19  2  0  0  0  0
 16 20  1  0  0  0  0
 18 21  1  0  0  0  0
 20 22  1  6  0  0  0
 21 23  1  0  0  0  0
 21 24  1  0  0  0  0
 22 25  1  0  0  0  0
 22 26  1  0  0  0  0
 24 27  1  6  0  0  0
  9 10  2  0  0  0  0
 12 14  2  0  0  0  0
 18 20  1  0  0  0  0
 23 25  2  0  0  0  0
 24 26  1  0  0  0  0
 26 27  1  6  0  0  0
M  CHG  2   2   1   3  -1
M  END
>  <MolRegNo>
305233

>  <m>
=

>  <Value>
3

>  <Unit>
nM

>  <Type>
Ki

>  <pValue>
8.52

>  <Ligand Efficiency>
0.43

>  <Binding Efficiency>
23.65

>  <Surface Efficiency>
10.58

>  <Assay Index>
235559

>  <Assay Category>


>  <Assay Organism>
Homo sapiens

>  <Target ID>
56

>  <Target Name>
Androgen Receptor

>  <Target Organism>
Homo sapiens

>  <Target Description>
Target is a single protein chain

>  <Sequence Accession>
P10275

>  <Reference>
Bioorg Med Chem Lett 15 (2), 271-276 (2005)

>  <Pubmed ID>
15603938

>  <DOI>
10.1016/j.bmcl.2004.10.085

$$$$
305258
Actelion Java MolfileCreator 1.0

 24 28  0  0  1  0  0  0  0  0999 V2000
    0.0000   -0.0000   -0.0000 F   0  0  0  0  0  0  0  0  0  0  0  0
   -1.2891    0.7489   -0.0000 C   0  0  0  0  0  0  0  0  0  0  0  0
   -1.2891    2.2344   -0.0000 F   0  0  0  0  0  0  0  0  0  0  0  0
   -0.2701    1.8047   -0.0000 F   0  0  0  0  0  0  0  0  0  0  0  0
   -2.5659    0.0368   -0.0000 C   0  0  0  0  0  0  0  0  0  0  0  0
   -3.8673    0.7857   -0.0000 C   0  0  0  0  0  0  0  0  0  0  0  0
   -2.5782   -1.4241   -0.0000 C   0  0  0  0  0  0  0  0  0  0  0  0
   -5.1441    0.0614   -0.0000 C   0  0  0  0  0  0  0  0  0  0  0  0
   -3.8796   -2.1485   -0.0000 C   0  0  0  0  0  0  0  0  0  0  0  0
   -6.4209    0.8103   -0.0000 N   0  0  0  0  0  0  0  0  0  0  0  0
   -5.1564   -1.3996   -0.0000 C   0  0  0  0  0  0  0  0  0  0  0  0
   -7.8328    0.3683   -0.0000 C   0  0  0  0  0  0  0  0  0  0  0  0
   -6.4332    2.3081   -0.0000 C   0  0  0  0  0  0  0  0  0  0  0  0
   -8.2870   -1.0190   -0.0000 O   0  0  0  0  0  0  0  0  0  0  0  0
   -8.7044    1.5837   -0.0000 C   0  0  0  0  0  0  0  0  0  0  0  0
   -5.2669    3.1920   -0.0000 O   0  0  0  0  0  0  0  0  0  0  0  0
   -7.8450    2.7623   -0.0000 C   0  0  0  0  0  0  0  0  0  0  0  0
  -10.1654    2.0871   -0.0000 C   0  0  0  0  0  0  0  0  0  0  0  0
   -9.2569    3.2411   -0.0000 C   0  0  0  0  0  0  0  0  0  0  0  0
  -11.6141    1.7925   -0.0000 C   0  0  0  0  0  0  0  0  0  0  0  0
  -10.4846    3.5358   -0.0000 C   0  0  0  0  0  0  0  0  0  0  0  0
  -10.7056    2.9465   -0.0000 C   0  0  0  0  0  0  0  0  0  0  0  0
   -9.7357    4.8126   -0.0000 C   0  0  0  0  0  0  0  0  0  0  0  0
  -11.5773    4.5425   -0.0000 C   0  0  0  0  0  0  0  0  0  0  0  0
  1  2  1  0  0  0  0
  2  3  1  0  0  0  0
  2  4  1  0  0  0  0
  2  5  1  0  0  0  0
  5  6  2  0  0  0  0
  5  7  1  0  0  0  0
  6  8  1  0  0  0  0
  7  9  2  0  0  0  0
  8 10  1  0  0  0  0
  8 11  2  0  0  0  0
 10 12  1  0  0  0  0
 10 13  1  0  0  0  0
 12 14  2  0  0  0  0
 15 12  1  6  0  0  0
 13 16  2  0  0  0  0
 13 17  1  0  0  0  0
 15 18  1  0  0  0  0
 17 19  1  6  0  0  0
 18 20  1  0  0  0  0
 18 21  1  0  0  0  0
 19 22  1  0  0  0  0
 19 23  1  0  0  0  0
 21 24  1  6  0  0  0
  9 11  1  0  0  0  0
 15 17  1  0  0  0  0
 20 22  2  0  0  0  0
 21 23  1  0  0  0  0
 23 24  1  6  0  0  0
M  END
>  <MolRegNo>
305258

>  <m>
=

>  <Value>
3200

>  <Unit>
nM

>  <Type>
Ki

>  <pValue>
5.5

>  <Ligand Efficiency>
0.31

>  <Binding Efficiency>
16.49

>  <Surface Efficiency>
14.7

>  <Assay Index>
235559

>  <Assay Category>


>  <Assay Organism>
Homo sapiens

>  <Target ID>
56

>  <Target Name>
Androgen Receptor

>  <Target Organism>
Homo sapiens

>  <Target Description>
Target is a single protein chain

>  <Sequence Accession>
P10275

>  <Reference>
Bioorg Med Chem Lett 15 (2), 271-276 (2005)

>  <Pubmed ID>
15603938

>  <DOI>
10.1016/j.bmcl.2004.10.085

$$$$
305273
Actelion Java MolfileCreator 1.0

 21 24  0  0  1  0  0  0  0  0999 V2000
    0.0000   -0.0000   -0.0000 Br  0  0  0  0  0  0  0  0  0  0  0  0
   -1.2893    0.7591   -0.0000 C   0  0  0  0  0  0  0  0  0  0  0  0
   -1.3013    2.2533   -0.0000 C   0  0  0  0  0  0  0  0  0  0  0  0
   -2.5786    0.0361   -0.0000 C   0  0  0  0  0  0  0  0  0  0  0  0
   -2.5906    3.0244   -0.0000 C   0  0  0  0  0  0  0  0  0  0  0  0
   -0.0361    3.0124   -0.0000 C   0  0  0  0  0  0  0  0  0  0  0  0
   -3.8679    0.7832   -0.0000 C   0  0  0  0  0  0  0  0  0  0  0  0
   -3.8799    2.2894   -0.0000 C   0  0  0  0  0  0  0  0  0  0  0  0
   -5.1933    3.0485   -0.0000 N   0  0  0  0  0  0  0  0  0  0  0  0
   -6.6031    2.5906   -0.0000 C   0  0  0  0  0  0  0  0  0  0  0  0
   -5.2054    4.5427   -0.0000 C   0  0  0  0  0  0  0  0  0  0  0  0
   -7.0851    1.1809   -0.0000 O   0  0  0  0  0  0  0  0  0  0  0  0
   -7.4948    3.8076   -0.0000 C   0  0  0  0  0  0  0  0  0  0  0  0
   -4.0004    5.4343   -0.0000 O   0  0  0  0  0  0  0  0  0  0  0  0
   -6.6152    5.0006   -0.0000 C   0  0  0  0  0  0  0  0  0  0  0  0
   -8.9648    4.3137   -0.0000 C   0  0  0  0  0  0  0  0  0  0  0  0
   -8.0491    5.4825   -0.0000 C   0  0  0  0  0  0  0  0  0  0  0  0
  -10.4349    4.0366   -0.0000 C   0  0  0  0  0  0  0  0  0  0  0  0
   -9.2661    5.7838   -0.0000 C   0  0  0  0  0  0  0  0  0  0  0  0
   -9.5191    5.2054   -0.0000 C   0  0  0  0  0  0  0  0  0  0  0  0
   -8.4708    7.0249   -0.0000 C   0  0  0  0  0  0  0  0  0  0  0  0
  1  2  1  0  0  0  0
  2  3  2  0  0  0  0
  2  4  1  0  0  0  0
  3  5  1  0  0  0  0
  3  6  1  0  0  0  0
  4  7  2  0  0  0  0
  5  8  2  0  0  0  0
  8  9  1  0  0  0  0
  9 10  1  0  0  0  0
  9 11  1  0  0  0  0
 10 12  2  0  0  0  0
 13 10  1  6  0  0  0
 11 14  2  0  0  0  0
 11 15  1  0  0  0  0
 13 16  1  0  0  0  0
 15 17  1  6  0  0  0
 16 18  1  0  0  0  0
 16 19  1  0  0  0  0
 17 20  1  0  0  0  0
 17 21  1  0  0  0  0
  7  8  1  0  0  0  0
 13 15  1  0  0  0  0
 18 20  2  0  0  0  0
 19 21  1  0  0  0  0
M  END
>  <MolRegNo>
305273

>  <m>
=

>  <Value>
171

>  <Unit>
nM

>  <Type>
Ki

>  <pValue>
6.77

>  <Ligand Efficiency>
0.44

>  <Binding Efficiency>
19.55

>  <Surface Efficiency>
18.1

>  <Assay Index>
235559

>  <Assay Category>


>  <Assay Organism>
Homo sapiens

>  <Target ID>
56

>  <Target Name>
Androgen Receptor

>  <Target Organism>
Homo sapiens

>  <Target Description>
Target is a single protein chain

>  <Sequence Accession>
P10275

>  <Reference>
Bioorg Med Chem Lett 15 (2), 271-276 (2005)

>  <Pubmed ID>
15603938

>  <DOI>
10.1016/j.bmcl.2004.10.085

$$$$
312214
Actelion Java MolfileCreator 1.0

 65 73  0  0  1  0  0  0  0  0999 V2000
    0.0000   -0.0000   -0.0000 O   0  0  0  0  0  0  0  0  0  0  0  0
    1.3197    0.7578   -0.0000 C   0  0  0  0  0  0  0  0  0  0  0  0
    2.6133    0.0131   -0.0000 C   0  0  0  0  0  0  0  0  0  0  0  0
    1.3197    2.2866   -0.0000 C   0  0  0  0  0  0  0  0  0  0  0  0
    3.9068    0.7578   -0.0000 C   0  0  0  0  0  0  0  0  0  0  0  0
    2.6133    3.0314   -0.0000 C   0  0  0  0  0  0  0  0  0  0  0  0
    3.9068    2.2866   -0.0000 C   0  0  0  0  0  0  0  0  0  0  0  0
    5.2004    0.0392   -0.0000 C   0  0  0  0  0  0  0  0  0  0  0  0
    5.1873    3.0575   -0.0000 C   0  0  0  0  0  0  0  0  0  0  0  0
    6.5070    0.8101   -0.0000 C   0  0  0  0  0  0  0  0  0  0  0  0
    5.1743    4.5863   -0.0000 C   0  0  0  0  0  0  0  0  0  0  0  0
    6.4809    2.3127   -0.0000 C   0  0  0  0  0  0  0  0  0  0  0  0
    4.2858    5.0697   -0.0000 C   0  0  0  0  0  0  0  0  0  0  0  0
    6.4678    5.3572   -0.0000 C   0  0  0  0  0  0  0  0  0  0  0  0
    7.7875    3.0837   -0.0000 C   0  0  0  0  0  0  0  0  0  0  0  0
    4.0506    6.5724   -0.0000 C   0  0  0  0  0  0  0  0  0  0  0  0
    3.0837    4.1159   -0.0000 C   0  0  0  0  0  0  0  0  0  0  0  0
    7.7745    4.6124   -0.0000 C   0  0  0  0  0  0  0  0  0  0  0  0
    9.1987    2.6263   -0.0000 C   0  0  0  0  0  0  0  0  0  0  0  0
    2.6133    7.1342   -0.0000 C   0  0  0  0  0  0  0  0  0  0  0  0
    1.6464    4.7039   -0.0000 C   0  0  0  0  0  0  0  0  0  0  0  0
    9.1856    5.0959   -0.0000 C   0  0  0  0  0  0  0  0  0  0  0  0
    7.7745    6.2588   -0.0000 C   0  0  0  0  0  0  0  0  0  0  0  0
   10.0741    3.8676   -0.0000 C   0  0  0  0  0  0  0  0  0  0  0  0
    1.4112    6.1934   -0.0000 C   0  0  0  0  0  0  0  0  0  0  0  0
    9.1595    6.7161   -0.0000 O   0  0  0  0  0  0  0  0  0  0  0  0
   10.4792    5.8668   -0.0000 C   0  0  0  0  0  0  0  0  0  0  0  0
    0.0784    6.9643   -0.0000 N   0  0  0  0  0  0  0  0  0  0  0  0
   11.7858    6.6377   -0.0000 C   0  0  0  0  0  0  0  0  0  0  0  0
    0.0784    8.4931   -0.0000 C   0  0  0  0  0  0  0  0  0  0  0  0
   -1.2413    6.2326   -0.0000 C   0  0  0  0  0  0  0  0  0  0  0  0
    1.5288    8.9112   -0.0000 C   0  0  0  0  0  0  0  0  0  0  0  0
    1.5288   10.4400   -0.0000 O   0  0  0  0  0  0  0  0  0  0  0  0
    2.8223   11.2109   -0.0000 C   0  0  0  0  0  0  0  0  0  0  0  0
    4.1290   10.4661   -0.0000 C   0  0  0  0  0  0  0  0  0  0  0  0
    2.8093   12.7397   -0.0000 C   0  0  0  0  0  0  0  0  0  0  0  0
    5.4095   11.2370   -0.0000 C   0  0  0  0  0  0  0  0  0  0  0  0
    4.1159   13.5106   -0.0000 C   0  0  0  0  0  0  0  0  0  0  0  0
    5.4095   12.7658   -0.0000 C   0  0  0  0  0  0  0  0  0  0  0  0
    6.7161   10.4923   -0.0000 C   0  0  0  0  0  0  0  0  0  0  0  0
    6.7030   13.5367   -0.0000 C   0  0  0  0  0  0  0  0  0  0  0  0
    5.3833   14.2946   -0.0000 C   0  0  0  0  0  0  0  0  0  0  0  0
    8.0097   11.2370   -0.0000 C   0  0  0  0  0  0  0  0  0  0  0  0
    7.9966   12.7527   -0.0000 C   0  0  0  0  0  0  0  0  0  0  0  0
    6.7030   15.0655   -0.0000 C   0  0  0  0  0  0  0  0  0  0  0  0
    9.0811   10.1787   -0.0000 O   0  0  0  0  0  0  0  0  0  0  0  0
    9.3032   13.5106   -0.0000 C   0  0  0  0  0  0  0  0  0  0  0  0
    8.0227   15.8103   -0.0000 C   0  0  0  0  0  0  0  0  0  0  0  0
    9.3163   15.0524   -0.0000 C   0  0  0  0  0  0  0  0  0  0  0  0
   10.7405   13.0402   -0.0000 C   0  0  0  0  0  0  0  0  0  0  0  0
    8.0097   17.2606   -0.0000 O   0  0  0  0  0  0  0  0  0  0  0  0
   10.7536   15.5097   -0.0000 C   0  0  0  0  0  0  0  0  0  0  0  0
    9.3294   16.2545   -0.0000 C   0  0  0  0  0  0  0  0  0  0  0  0
   11.5114   14.2031   -0.0000 C   0  0  0  0  0  0  0  0  0  0  0  0
   10.7536   17.1822   -0.0000 C   0  0  0  0  0  0  0  0  0  0  0  0
   12.0471   17.9270   -0.0000 C   0  0  0  0  0  0  0  0  0  0  0  0
    9.6560   17.8225   -0.0000 C   0  0  0  0  0  0  0  0  0  0  0  0
   13.3407   17.2083   -0.0000 C   0  0  0  0  0  0  0  0  0  0  0  0
   14.6473   17.9662   -0.0000 C   0  0  0  0  0  0  0  0  0  0  0  0
   14.6343   19.5211   -0.0000 O   0  0  0  0  0  0  0  0  0  0  0  0
   15.9409   17.2475   -0.0000 N   0  0  0  0  0  0  0  0  0  0  0  0
   16.9993   18.3190   -0.0000 C   0  0  0  0  0  0  0  0  0  0  0  0
   18.2929   17.5742   -0.0000 C   0  0  0  0  0  0  0  0  0  0  0  0
   19.5995   18.3451   -0.0000 O   0  0  0  0  0  0  0  0  0  0  0  0
   18.2798   16.0977   -0.0000 O   0  0  0  0  0  0  0  0  0  0  0  0
  1  2  2  0  0  0  0
  2  3  1  0  0  0  0
  2  4  1  0  0  0  0
  3  5  2  0  0  0  0
  4  6  1  0  0  0  0
  5  7  1  0  0  0  0
  5  8  1  0  0  0  0
  7  9  2  0  0  0  0
  8 10  1  0  0  0  0
  9 11  1  0  0  0  0
  9 12  1  0  0  0  0
 11 13  1  1  0  0  0
 11 14  1  0  0  0  0
 12 15  1  0  0  0  0
 13 16  2  0  0  0  0
 13 17  1  0  0  0  0
 14 18  1  0  0  0  0
 15 19  1  1  0  0  0
 16 20  1  0  0  0  0
 17 21  2  0  0  0  0
 18 22  1  0  0  0  0
 18 23  1  1  0  0  0
 19 24  1  0  0  0  0
 20 25  2  0  0  0  0
 22 26  1  1  0  0  0
 22 27  1  0  0  0  0
 25 28  1  0  0  0  0
 27 29  3  0  0  0  0
 28 30  1  0  0  0  0
 28 31  1  0  0  0  0
 30 32  1  0  0  0  0
 32 33  1  0  0  0  0
 33 34  1  0  0  0  0
 34 35  1  0  0  0  0
 34 36  1  0  0  0  0
 37 35  1  6  0  0  0
 36 38  1  0  0  0  0
 37 39  1  0  0  0  0
 37 40  1  0  0  0  0
 39 41  1  0  0  0  0
 39 42  1  1  0  0  0
 40 43  1  0  0  0  0
 44 41  1  6  0  0  0
 41 45  1  1  0  0  0
 43 46  1  6  0  0  0
 44 47  1  0  0  0  0
 45 48  1  0  0  0  0
 47 49  1  0  0  0  0
 47 50  1  1  0  0  0
 48 51  1  6  0  0  0
 49 52  1  0  0  0  0
 49 53  1  1  0  0  0
 50 54  1  0  0  0  0
 52 55  1  0  0  0  0
 55 56  1  0  0  0  0
 55 57  1  6  0  0  0
 56 58  1  0  0  0  0
 58 59  1  0  0  0  0
 59 60  2  0  0  0  0
 59 61  1  0  0  0  0
 61 62  1  0  0  0  0
 62 63  1  0  0  0  0
 63 64  2  0  0  0  0
 63 65  1  0  0  0  0
  6  7  1  0  0  0  0
 12 10  1  6  0  0  0
 15 18  1  0  0  0  0
 21 25  1  0  0  0  0
 22 24  1  0  0  0  0
 38 39  1  0  0  0  0
 43 44  1  0  0  0  0
 48 49  1  0  0  0  0
 52 54  1  1  0  0  0
M  END
>  <MolRegNo>
312214

>  <m>
=

>  <Value>
34

>  <Unit>
nM

>  <Type>
Ki

>  <pValue>
7.47

>  <Ligand Efficiency>
0.16

>  <Binding Efficiency>
8.36

>  <Surface Efficiency>
4.77

>  <Assay Index>
235287

>  <Assay Category>


>  <Assay Organism>
Homo sapiens

>  <Target ID>
56

>  <Target Name>
Androgen Receptor

>  <Target Organism>
Homo sapiens

>  <Target Description>
Target is a single protein chain

>  <Sequence Accession>
P10275

>  <Reference>
J Med Chem 47 (17), 4213-4230 (2004)

>  <Pubmed ID>
15293993

>  <DOI>
10.1021/jm0400045

$$$$
312215
Actelion Java MolfileCreator 1.0

 67 75  0  0  1  0  0  0  0  0999 V2000
    0.0000   -0.0000   -0.0000 S   0  0  0  0  0  0  0  0  0  0  0  0
   -0.7977   -1.3076   -0.0000 O   0  0  0  0  0  0  0  0  0  0  0  0
    1.4384    0.4054   -0.0000 O   0  0  0  0  0  0  0  0  0  0  0  0
    1.0461   -1.0723   -0.0000 O   0  0  0  0  0  0  0  0  0  0  0  0
   -0.0131    1.4907   -0.0000 C   0  0  0  0  0  0  0  0  0  0  0  0
   -1.3338    2.2491   -0.0000 C   0  0  0  0  0  0  0  0  0  0  0  0
   -2.4322    1.2030   -0.0000 N   0  0  0  0  0  0  0  0  0  0  0  0
   -3.7529    1.9614   -0.0000 C   0  0  0  0  0  0  0  0  0  0  0  0
   -3.7660    3.4914   -0.0000 O   0  0  0  0  0  0  0  0  0  0  0  0
   -5.0736    1.2292   -0.0000 C   0  0  0  0  0  0  0  0  0  0  0  0
   -6.3943    1.9745   -0.0000 C   0  0  0  0  0  0  0  0  0  0  0  0
   -7.7281    1.2423   -0.0000 C   0  0  0  0  0  0  0  0  0  0  0  0
   -7.7673   -0.4054   -0.0000 C   0  0  0  0  0  0  0  0  0  0  0  0
   -8.8396    1.8830   -0.0000 C   0  0  0  0  0  0  0  0  0  0  0  0
   -9.2319   -0.8238   -0.0000 C   0  0  0  0  0  0  0  0  0  0  0  0
   -7.0220   -1.6999   -0.0000 C   0  0  0  0  0  0  0  0  0  0  0  0
  -10.5526   -0.0262   -0.0000 C   0  0  0  0  0  0  0  0  0  0  0  0
   -9.2711   -2.3276   -0.0000 C   0  0  0  0  0  0  0  0  0  0  0  0
   -9.2188    0.3792   -0.0000 C   0  0  0  0  0  0  0  0  0  0  0  0
   -7.8196   -2.8245   -0.0000 C   0  0  0  0  0  0  0  0  0  0  0  0
  -10.5395    1.4384   -0.0000 O   0  0  0  0  0  0  0  0  0  0  0  0
  -11.8995   -0.7715   -0.0000 C   0  0  0  0  0  0  0  0  0  0  0  0
  -10.5918   -3.0729   -0.0000 C   0  0  0  0  0  0  0  0  0  0  0  0
  -11.9125   -2.2753   -0.0000 C   0  0  0  0  0  0  0  0  0  0  0  0
  -10.6049   -4.5506   -0.0000 C   0  0  0  0  0  0  0  0  0  0  0  0
  -13.2332   -3.0206   -0.0000 C   0  0  0  0  0  0  0  0  0  0  0  0
   -9.5588   -5.6097   -0.0000 O   0  0  0  0  0  0  0  0  0  0  0  0
  -11.9518   -5.2959   -0.0000 C   0  0  0  0  0  0  0  0  0  0  0  0
  -13.2725   -4.5244   -0.0000 C   0  0  0  0  0  0  0  0  0  0  0  0
  -14.5670   -2.2491   -0.0000 C   0  0  0  0  0  0  0  0  0  0  0  0
  -13.2725   -1.4907   -0.0000 C   0  0  0  0  0  0  0  0  0  0  0  0
  -14.5801   -5.2698   -0.0000 C   0  0  0  0  0  0  0  0  0  0  0  0
  -15.8877   -2.9945   -0.0000 C   0  0  0  0  0  0  0  0  0  0  0  0
  -15.9008   -4.4983   -0.0000 C   0  0  0  0  0  0  0  0  0  0  0  0
  -17.2215   -5.2436   -0.0000 O   0  0  0  0  0  0  0  0  0  0  0  0
  -17.2608   -6.7474   -0.0000 C   0  0  0  0  0  0  0  0  0  0  0  0
  -18.7384   -7.1266   -0.0000 C   0  0  0  0  0  0  0  0  0  0  0  0
  -18.7515   -8.6304   -0.0000 N   0  0  0  0  0  0  0  0  0  0  0  0
  -17.4569   -9.3757   -0.0000 C   0  0  0  0  0  0  0  0  0  0  0  0
  -20.0983   -9.3365   -0.0000 C   0  0  0  0  0  0  0  0  0  0  0  0
  -16.2670   -8.4081   -0.0000 C   0  0  0  0  0  0  0  0  0  0  0  0
  -17.2346  -10.8403   -0.0000 C   0  0  0  0  0  0  0  0  0  0  0  0
  -14.8809   -8.9442   -0.0000 C   0  0  0  0  0  0  0  0  0  0  0  0
  -15.8224  -11.3895   -0.0000 C   0  0  0  0  0  0  0  0  0  0  0  0
  -14.6716  -10.4218   -0.0000 C   0  0  0  0  0  0  0  0  0  0  0  0
  -13.7824  -10.8534   -0.0000 C   0  0  0  0  0  0  0  0  0  0  0  0
  -13.7955  -12.3571   -0.0000 C   0  0  0  0  0  0  0  0  0  0  0  0
  -12.5140  -10.0818   -0.0000 C   0  0  0  0  0  0  0  0  0  0  0  0
  -15.1162  -13.1025   -0.0000 C   0  0  0  0  0  0  0  0  0  0  0  0
  -12.5271  -13.1025   -0.0000 C   0  0  0  0  0  0  0  0  0  0  0  0
  -11.2064  -10.8272   -0.0000 C   0  0  0  0  0  0  0  0  0  0  0  0
  -15.1293  -14.6063   -0.0000 C   0  0  0  0  0  0  0  0  0  0  0  0
  -16.4239  -12.3310   -0.0000 C   0  0  0  0  0  0  0  0  0  0  0  0
  -11.2195  -12.3310   -0.0000 C   0  0  0  0  0  0  0  0  0  0  0  0
  -12.5140  -14.5801   -0.0000 C   0  0  0  0  0  0  0  0  0  0  0  0
   -9.7680  -10.3695   -0.0000 C   0  0  0  0  0  0  0  0  0  0  0  0
  -11.1933   -9.1796   -0.0000 C   0  0  0  0  0  0  0  0  0  0  0  0
  -16.4500  -15.3516   -0.0000 C   0  0  0  0  0  0  0  0  0  0  0  0
  -13.8348  -15.3255   -0.0000 C   0  0  0  0  0  0  0  0  0  0  0  0
  -17.7577  -13.0502   -0.0000 C   0  0  0  0  0  0  0  0  0  0  0  0
   -9.7811  -12.7886   -0.0000 C   0  0  0  0  0  0  0  0  0  0  0  0
   -9.8072   -8.7481   -0.0000 O   0  0  0  0  0  0  0  0  0  0  0  0
   -8.4735   -9.5980   -0.0000 C   0  0  0  0  0  0  0  0  0  0  0  0
   -8.8919  -11.5726   -0.0000 C   0  0  0  0  0  0  0  0  0  0  0  0
  -17.7838  -14.5540   -0.0000 C   0  0  0  0  0  0  0  0  0  0  0  0
   -7.1789   -8.8004   -0.0000 C   0  0  0  0  0  0  0  0  0  0  0  0
  -19.1045  -15.2993   -0.0000 O   0  0  0  0  0  0  0  0  0  0  0  0
  1  2  2  0  0  0  0
  1  3  2  0  0  0  0
  1  4  1  0  0  0  0
  1  5  1  0  0  0  0
  5  6  1  0  0  0  0
  6  7  1  0  0  0  0
  7  8  1  0  0  0  0
  8  9  2  0  0  0  0
  8 10  1  0  0  0  0
 10 11  1  0  0  0  0
 11 12  1  0  0  0  0
 12 13  1  0  0  0  0
 12 14  1  6  0  0  0
 13 15  1  0  0  0  0
 13 16  1  1  0  0  0
 15 17  1  0  0  0  0
 15 18  1  0  0  0  0
 15 19  1  1  0  0  0
 16 20  1  0  0  0  0
 17 21  1  6  0  0  0
 17 22  1  0  0  0  0
 23 18  1  6  0  0  0
 24 22  1  1  0  0  0
 23 25  1  0  0  0  0
 24 26  1  0  0  0  0
 25 27  1  6  0  0  0
 25 28  1  0  0  0  0
 26 29  1  0  0  0  0
 26 30  1  0  0  0  0
 26 31  1  1  0  0  0
 29 32  1  6  0  0  0
 30 33  1  0  0  0  0
 32 34  1  0  0  0  0
 34 35  1  0  0  0  0
 35 36  1  0  0  0  0
 36 37  1  0  0  0  0
 37 38  1  0  0  0  0
 38 39  1  0  0  0  0
 38 40  1  0  0  0  0
 39 41  2  0  0  0  0
 39 42  1  0  0  0  0
 41 43  1  0  0  0  0
 42 44  2  0  0  0  0
 43 45  2  0  0  0  0
 46 45  1  1  0  0  0
 46 47  1  0  0  0  0
 46 48  1  0  0  0  0
 47 49  2  0  0  0  0
 47 50  1  0  0  0  0
 48 51  1  0  0  0  0
 49 52  1  0  0  0  0
 49 53  1  0  0  0  0
 50 54  1  0  0  0  0
 50 55  1  6  0  0  0
 51 56  1  0  0  0  0
 51 57  1  1  0  0  0
 52 58  2  0  0  0  0
 52 59  1  0  0  0  0
 53 60  1  0  0  0  0
 54 61  1  1  0  0  0
 56 62  1  1  0  0  0
 56 63  1  0  0  0  0
 56 64  1  0  0  0  0
 58 65  1  0  0  0  0
 63 66  3  0  0  0  0
 65 67  2  0  0  0  0
 18 20  1  1  0  0  0
 23 24  1  0  0  0  0
 28 29  1  0  0  0  0
 33 34  1  0  0  0  0
 44 45  1  0  0  0  0
 51 54  1  0  0  0  0
 55 59  1  0  0  0  0
 60 65  1  0  0  0  0
 61 64  1  0  0  0  0
M  END
>  <MolRegNo>
312215

>  <m>
=

>  <Value>
8.9

>  <Unit>
nM

>  <Type>
Ki

>  <pValue>
8.05

>  <Ligand Efficiency>
0.16

>  <Binding Efficiency>
8.53

>  <Surface Efficiency>
4.63

>  <Assay Index>
235287

>  <Assay Category>


>  <Assay Organism>
Homo sapiens

>  <Target ID>
56

>  <Target Name>
Androgen Receptor

>  <Target Organism>
Homo sapiens

>  <Target Description>
Target is a single protein chain

>  <Sequence Accession>
P10275

>  <Reference>
J Med Chem 47 (17), 4213-4230 (2004)

>  <Pubmed ID>
15293993

>  <DOI>
10.1021/jm0400045

$$$$
314978
Actelion Java MolfileCreator 1.0

 31 34  0  0  1  0  0  0  0  0999 V2000
    0.0000   -0.0000   -0.0000 F   0  0  0  0  0  0  0  0  0  0  0  0
   -1.5467   -0.2933   -0.0000 C   0  0  0  0  0  0  0  0  0  0  0  0
   -2.1467    1.1467   -0.0000 F   0  0  0  0  0  0  0  0  0  0  0  0
   -0.9067    0.9333   -0.0000 F   0  0  0  0  0  0  0  0  0  0  0  0
   -2.2400   -1.5867   -0.0000 C   0  0  0  0  0  0  0  0  0  0  0  0
   -1.4667   -2.8267   -0.0000 C   0  0  0  0  0  0  0  0  0  0  0  0
   -3.7333   -1.6133   -0.0000 C   0  0  0  0  0  0  0  0  0  0  0  0
    0.0000   -2.7867   -0.0000 C   0  0  0  0  0  0  0  0  0  0  0  0
   -2.1867   -4.1333   -0.0000 C   0  0  0  0  0  0  0  0  0  0  0  0
   -4.4267   -2.8933   -0.0000 C   0  0  0  0  0  0  0  0  0  0  0  0
    1.4667   -2.7467   -0.0000 N   0  0  0  0  0  0  0  0  0  0  0  0
   -3.6800   -4.1600   -0.0000 C   0  0  0  0  0  0  0  0  0  0  0  0
   -5.9333   -2.9200   -0.0000 N   0  0  0  0  0  0  0  0  0  0  0  0
   -6.7733   -4.1333   -0.0000 C   0  0  0  0  0  0  0  0  0  0  0  0
   -6.8400   -1.7333   -0.0000 C   0  0  0  0  0  0  0  0  0  0  0  0
   -6.2933   -5.5333   -0.0000 O   0  0  0  0  0  0  0  0  0  0  0  0
   -8.2267   -3.7333   -0.0000 N   0  0  0  0  0  0  0  0  0  0  0  0
   -6.4533   -0.2933   -0.0000 O   0  0  0  0  0  0  0  0  0  0  0  0
   -8.2667   -2.2267   -0.0000 C   0  0  0  0  0  0  0  0  0  0  0  0
   -9.4933   -4.4800   -0.0000 C   0  0  0  0  0  0  0  0  0  0  0  0
   -9.5867   -1.5067   -0.0000 C   0  0  0  0  0  0  0  0  0  0  0  0
  -10.7867   -3.7867   -0.0000 C   0  0  0  0  0  0  0  0  0  0  0  0
   -8.8267   -2.7733   -0.0000 C   0  0  0  0  0  0  0  0  0  0  0  0
  -10.8400   -2.2800   -0.0000 N   0  0  0  0  0  0  0  0  0  0  0  0
  -12.1734   -1.5733   -0.0000 C   0  0  0  0  0  0  0  0  0  0  0  0
  -12.2267   -0.0667   -0.0000 O   0  0  0  0  0  0  0  0  0  0  0  0
  -13.4400   -2.3467   -0.0000 O   0  0  0  0  0  0  0  0  0  0  0  0
  -14.7600   -1.6400   -0.0000 C   0  0  0  0  0  0  0  0  0  0  0  0
  -16.0267   -2.4000   -0.0000 C   0  0  0  0  0  0  0  0  0  0  0  0
  -14.8134   -0.1200   -0.0000 C   0  0  0  0  0  0  0  0  0  0  0  0
  -16.0934   -0.9200   -0.0000 C   0  0  0  0  0  0  0  0  0  0  0  0
  1  2  1  0  0  0  0
  2  3  1  0  0  0  0
  2  4  1  0  0  0  0
  2  5  1  0  0  0  0
  5  6  2  0  0  0  0
  5  7  1  0  0  0  0
  6  8  1  0  0  0  0
  6  9  1  0  0  0  0
  7 10  2  0  0  0  0
  8 11  3  0  0  0  0
  9 12  2  0  0  0  0
 10 13  1  0  0  0  0
 13 14  1  0  0  0  0
 13 15  1  0  0  0  0
 14 16  2  0  0  0  0
 14 17  1  0  0  0  0
 15 18  2  0  0  0  0
 15 19  1  0  0  0  0
 20 17  1  6  0  0  0
 19 21  1  0  0  0  0
 20 22  1  0  0  0  0
 20 23  1  0  0  0  0
 21 24  1  6  0  0  0
 24 25  1  0  0  0  0
 25 26  2  0  0  0  0
 25 27  1  0  0  0  0
 27 28  1  0  0  0  0
 28 29  1  0  0  0  0
 28 30  1  0  0  0  0
 28 31  1  0  0  0  0
 10 12  1  0  0  0  0
 19 17  1  6  0  0  0
 21 23  1  0  0  0  0
 22 24  1  0  0  0  0
M  END
>  <MolRegNo>
314978

>  <m>
=

>  <Value>
40

>  <Unit>
nM

>  <Type>
Ki

>  <pValue>
7.4

>  <Ligand Efficiency>
0.33

>  <Binding Efficiency>
16.95

>  <Surface Efficiency>
7.87

>  <Assay Index>
236083

>  <Assay Category>


>  <Assay Organism>
Homo sapiens

>  <Target ID>
56

>  <Target Name>
Androgen Receptor

>  <Target Organism>
Homo sapiens

>  <Target Description>
Target is a single protein chain

>  <Sequence Accession>
P10275

>  <Reference>
Bioorg Med Chem Lett 14 (24), 6107-6111 (2004)

>  <Pubmed ID>
15546739

>  <DOI>
10.1016/j.bmcl.2004.09.049

$$$$
314681
Actelion Java MolfileCreator 1.0

 31 34  0  0  1  0  0  0  0  0999 V2000
    0.0000   -0.0000   -0.0000 F   0  0  0  0  0  0  0  0  0  0  0  0
   -1.5521   -0.2368   -0.0000 C   0  0  0  0  0  0  0  0  0  0  0  0
   -2.1177    1.2496   -0.0000 F   0  0  0  0  0  0  0  0  0  0  0  0
   -0.8944    0.9470   -0.0000 F   0  0  0  0  0  0  0  0  0  0  0  0
   -2.3150   -1.5258   -0.0000 C   0  0  0  0  0  0  0  0  0  0  0  0
   -1.5784   -2.7885   -0.0000 C   0  0  0  0  0  0  0  0  0  0  0  0
   -3.8145   -1.5126   -0.0000 C   0  0  0  0  0  0  0  0  0  0  0  0
   -0.1052   -2.8017   -0.0000 C   0  0  0  0  0  0  0  0  0  0  0  0
   -2.3282   -4.0776   -0.0000 C   0  0  0  0  0  0  0  0  0  0  0  0
   -4.5511   -2.7754   -0.0000 C   0  0  0  0  0  0  0  0  0  0  0  0
    1.3680   -2.7885   -0.0000 N   0  0  0  0  0  0  0  0  0  0  0  0
   -3.8145   -4.0644   -0.0000 C   0  0  0  0  0  0  0  0  0  0  0  0
   -6.0506   -2.7622   -0.0000 N   0  0  0  0  0  0  0  0  0  0  0  0
   -6.9187   -3.9460   -0.0000 C   0  0  0  0  0  0  0  0  0  0  0  0
   -6.9187   -1.5521   -0.0000 C   0  0  0  0  0  0  0  0  0  0  0  0
   -6.4846   -5.3534   -0.0000 O   0  0  0  0  0  0  0  0  0  0  0  0
   -8.3524   -3.4988   -0.0000 N   0  0  0  0  0  0  0  0  0  0  0  0
   -6.4846   -0.1315   -0.0000 O   0  0  0  0  0  0  0  0  0  0  0  0
   -8.3524   -1.9993   -0.0000 C   0  0  0  0  0  0  0  0  0  0  0  0
   -9.6415   -4.2091   -0.0000 C   0  0  0  0  0  0  0  0  0  0  0  0
   -9.6415   -1.2364   -0.0000 C   0  0  0  0  0  0  0  0  0  0  0  0
  -10.9305   -3.4725   -0.0000 C   0  0  0  0  0  0  0  0  0  0  0  0
   -8.9180   -2.5255   -0.0000 C   0  0  0  0  0  0  0  0  0  0  0  0
  -10.9305   -1.9730   -0.0000 N   0  0  0  0  0  0  0  0  0  0  0  0
  -12.2327   -1.2233   -0.0000 C   0  0  0  0  0  0  0  0  0  0  0  0
  -12.2590    0.2762   -0.0000 O   0  0  0  0  0  0  0  0  0  0  0  0
  -13.5349   -1.9599   -0.0000 O   0  0  0  0  0  0  0  0  0  0  0  0
  -14.8370   -1.2233   -0.0000 C   0  0  0  0  0  0  0  0  0  0  0  0
  -16.1261   -1.9336   -0.0000 C   0  0  0  0  0  0  0  0  0  0  0  0
  -14.8502    0.2894   -0.0000 C   0  0  0  0  0  0  0  0  0  0  0  0
  -16.1392   -0.4604   -0.0000 C   0  0  0  0  0  0  0  0  0  0  0  0
  1  2  1  0  0  0  0
  2  3  1  0  0  0  0
  2  4  1  0  0  0  0
  2  5  1  0  0  0  0
  5  6  2  0  0  0  0
  5  7  1  0  0  0  0
  6  8  1  0  0  0  0
  6  9  1  0  0  0  0
  7 10  2  0  0  0  0
  8 11  3  0  0  0  0
  9 12  2  0  0  0  0
 10 13  1  0  0  0  0
 13 14  1  0  0  0  0
 13 15  1  0  0  0  0
 14 16  2  0  0  0  0
 14 17  1  0  0  0  0
 15 18  2  0  0  0  0
 15 19  1  0  0  0  0
 20 17  1  6  0  0  0
 19 21  1  0  0  0  0
 20 22  1  0  0  0  0
 20 23  1  0  0  0  0
 21 24  1  6  0  0  0
 24 25  1  0  0  0  0
 25 26  2  0  0  0  0
 25 27  1  0  0  0  0
 27 28  1  0  0  0  0
 28 29  1  0  0  0  0
 28 30  1  0  0  0  0
 28 31  1  0  0  0  0
 10 12  1  0  0  0  0
 19 17  1  1  0  0  0
 21 23  1  0  0  0  0
 22 24  1  0  0  0  0
M  END
>  <MolRegNo>
314681

>  <m>
=

>  <Value>
180

>  <Unit>
nM

>  <Type>
Ki

>  <pValue>
6.75

>  <Ligand Efficiency>
0.3

>  <Binding Efficiency>
15.46

>  <Surface Efficiency>
7.18

>  <Assay Index>
236083

>  <Assay Category>


>  <Assay Organism>
Homo sapiens

>  <Target ID>
56

>  <Target Name>
Androgen Receptor

>  <Target Organism>
Homo sapiens

>  <Target Description>
Target is a single protein chain

>  <Sequence Accession>
P10275

>  <Reference>
Bioorg Med Chem Lett 14 (24), 6107-6111 (2004)

>  <Pubmed ID>
15546739

>  <DOI>
10.1016/j.bmcl.2004.09.049

$$$$
314771
Actelion Java MolfileCreator 1.0

 32 36  0  0  1  0  0  0  0  0999 V2000
    0.0000   -0.0000   -0.0000 O   0  0  0  0  0  0  0  0  0  0  0  0
   -0.7550   -1.2848   -0.0000 N   0  0  0  0  0  0  0  0  0  0  0  0
   -0.0265   -2.5564   -0.0000 O   0  0  0  0  0  0  0  0  0  0  0  0
   -2.2650   -1.2716   -0.0000 C   0  0  0  0  0  0  0  0  0  0  0  0
   -3.0465    0.0397   -0.0000 C   0  0  0  0  0  0  0  0  0  0  0  0
   -3.0200   -2.5431   -0.0000 C   0  0  0  0  0  0  0  0  0  0  0  0
   -4.5300    0.0397   -0.0000 C   0  0  0  0  0  0  0  0  0  0  0  0
   -2.3180    1.3378   -0.0000 C   0  0  0  0  0  0  0  0  0  0  0  0
   -4.5300   -2.5166   -0.0000 C   0  0  0  0  0  0  0  0  0  0  0  0
   -5.2850   -1.2318   -0.0000 C   0  0  0  0  0  0  0  0  0  0  0  0
   -5.2850    1.3246   -0.0000 C   0  0  0  0  0  0  0  0  0  0  0  0
   -3.0862    2.6226   -0.0000 C   0  0  0  0  0  0  0  0  0  0  0  0
   -6.7817   -1.2186   -0.0000 N   0  0  0  0  0  0  0  0  0  0  0  0
   -4.5697    2.6226   -0.0000 C   0  0  0  0  0  0  0  0  0  0  0  0
   -7.6691   -2.4107   -0.0000 C   0  0  0  0  0  0  0  0  0  0  0  0
   -7.6691    0.0132   -0.0000 C   0  0  0  0  0  0  0  0  0  0  0  0
   -7.2320   -3.8015   -0.0000 O   0  0  0  0  0  0  0  0  0  0  0  0
   -9.0864   -1.9338   -0.0000 N   0  0  0  0  0  0  0  0  0  0  0  0
   -7.2320    1.4305   -0.0000 O   0  0  0  0  0  0  0  0  0  0  0  0
   -9.0864   -0.4503   -0.0000 C   0  0  0  0  0  0  0  0  0  0  0  0
  -10.3845   -2.6491   -0.0000 C   0  0  0  0  0  0  0  0  0  0  0  0
  -10.3845    0.3046   -0.0000 C   0  0  0  0  0  0  0  0  0  0  0  0
  -11.6825   -1.9074   -0.0000 C   0  0  0  0  0  0  0  0  0  0  0  0
   -9.6692   -0.9537   -0.0000 C   0  0  0  0  0  0  0  0  0  0  0  0
  -11.6825   -0.4239   -0.0000 N   0  0  0  0  0  0  0  0  0  0  0  0
  -12.9806    0.3311   -0.0000 C   0  0  0  0  0  0  0  0  0  0  0  0
  -12.9938    1.8279   -0.0000 O   0  0  0  0  0  0  0  0  0  0  0  0
  -14.2654   -0.3974   -0.0000 O   0  0  0  0  0  0  0  0  0  0  0  0
  -15.5635    0.3444   -0.0000 C   0  0  0  0  0  0  0  0  0  0  0  0
  -16.8615   -0.3709   -0.0000 C   0  0  0  0  0  0  0  0  0  0  0  0
  -15.6032    1.8411   -0.0000 C   0  0  0  0  0  0  0  0  0  0  0  0
  -16.8880    1.0994   -0.0000 C   0  0  0  0  0  0  0  0  0  0  0  0
  1  2  2  0  0  0  0
  2  3  1  0  0  0  0
  2  4  1  0  0  0  0
  4  5  1  0  0  0  0
  4  6  2  0  0  0  0
  5  7  1  0  0  0  0
  5  8  2  0  0  0  0
  6  9  1  0  0  0  0
  7 10  1  0  0  0  0
  7 11  2  0  0  0  0
  8 12  1  0  0  0  0
 10 13  1  0  0  0  0
 11 14  1  0  0  0  0
 13 15  1  0  0  0  0
 13 16  1  0  0  0  0
 15 17  2  0  0  0  0
 15 18  1  0  0  0  0
 16 19  2  0  0  0  0
 16 20  1  0  0  0  0
 21 18  1  6  0  0  0
 20 22  1  0  0  0  0
 21 23  1  0  0  0  0
 21 24  1  0  0  0  0
 22 25  1  6  0  0  0
 25 26  1  0  0  0  0
 26 27  2  0  0  0  0
 26 28  1  0  0  0  0
 28 29  1  0  0  0  0
 29 30  1  0  0  0  0
 29 31  1  0  0  0  0
 29 32  1  0  0  0  0
  9 10  2  0  0  0  0
 12 14  2  0  0  0  0
 20 18  1  6  0  0  0
 22 24  1  0  0  0  0
 23 25  1  0  0  0  0
M  CHG  2   2   1   3  -1
M  END
>  <MolRegNo>
314771

>  <m>
=

>  <Value>
60

>  <Unit>
nM

>  <Type>
Ki

>  <pValue>
7.22

>  <Ligand Efficiency>
0.31

>  <Binding Efficiency>
16.47

>  <Surface Efficiency>
6.37

>  <Assay Index>
236083

>  <Assay Category>


>  <Assay Organism>
Homo sapiens

>  <Target ID>
56

>  <Target Name>
Androgen Receptor

>  <Target Organism>
Homo sapiens

>  <Target Description>
Target is a single protein chain

>  <Sequence Accession>
P10275

>  <Reference>
Bioorg Med Chem Lett 14 (24), 6107-6111 (2004)

>  <Pubmed ID>
15546739

>  <DOI>
10.1016/j.bmcl.2004.09.049

$$$$
315095
Actelion Java MolfileCreator 1.0

 32 36  0  0  1  0  0  0  0  0999 V2000
    0.0000   -0.0000   -0.0000 O   0  0  0  0  0  0  0  0  0  0  0  0
   -0.7552   -1.2852   -0.0000 N   0  0  0  0  0  0  0  0  0  0  0  0
   -0.0265   -2.5572   -0.0000 O   0  0  0  0  0  0  0  0  0  0  0  0
   -2.2789   -1.2720   -0.0000 C   0  0  0  0  0  0  0  0  0  0  0  0
   -3.0209    0.0397   -0.0000 C   0  0  0  0  0  0  0  0  0  0  0  0
   -3.0209   -2.5439   -0.0000 C   0  0  0  0  0  0  0  0  0  0  0  0
   -4.5181    0.0397   -0.0000 C   0  0  0  0  0  0  0  0  0  0  0  0
   -2.3054    1.3382   -0.0000 C   0  0  0  0  0  0  0  0  0  0  0  0
   -4.5181   -2.5174   -0.0000 C   0  0  0  0  0  0  0  0  0  0  0  0
   -5.2733   -1.2322   -0.0000 C   0  0  0  0  0  0  0  0  0  0  0  0
   -5.2733    1.3250   -0.0000 C   0  0  0  0  0  0  0  0  0  0  0  0
   -3.0607    2.6234   -0.0000 C   0  0  0  0  0  0  0  0  0  0  0  0
   -6.7705   -1.2190   -0.0000 N   0  0  0  0  0  0  0  0  0  0  0  0
   -4.5579    2.6234   -0.0000 C   0  0  0  0  0  0  0  0  0  0  0  0
   -7.6583   -2.4114   -0.0000 C   0  0  0  0  0  0  0  0  0  0  0  0
   -7.6583    0.0132   -0.0000 C   0  0  0  0  0  0  0  0  0  0  0  0
   -7.2078   -3.8026   -0.0000 O   0  0  0  0  0  0  0  0  0  0  0  0
   -9.0760   -1.9344   -0.0000 N   0  0  0  0  0  0  0  0  0  0  0  0
   -7.2078    1.4310   -0.0000 O   0  0  0  0  0  0  0  0  0  0  0  0
   -9.0760   -0.4505   -0.0000 C   0  0  0  0  0  0  0  0  0  0  0  0
  -10.3744   -2.6499   -0.0000 C   0  0  0  0  0  0  0  0  0  0  0  0
  -10.3744    0.3047   -0.0000 C   0  0  0  0  0  0  0  0  0  0  0  0
  -11.6729   -1.9079   -0.0000 C   0  0  0  0  0  0  0  0  0  0  0  0
   -9.6457   -0.9540   -0.0000 C   0  0  0  0  0  0  0  0  0  0  0  0
  -11.6729   -0.4240   -0.0000 N   0  0  0  0  0  0  0  0  0  0  0  0
  -12.9581    0.3312   -0.0000 C   0  0  0  0  0  0  0  0  0  0  0  0
  -12.9846    1.8284   -0.0000 O   0  0  0  0  0  0  0  0  0  0  0  0
  -14.2566   -0.3975   -0.0000 O   0  0  0  0  0  0  0  0  0  0  0  0
  -15.5815    0.3445   -0.0000 C   0  0  0  0  0  0  0  0  0  0  0  0
  -16.8667   -0.3710   -0.0000 C   0  0  0  0  0  0  0  0  0  0  0  0
  -15.5948    1.8417   -0.0000 C   0  0  0  0  0  0  0  0  0  0  0  0
  -16.8667    1.0997   -0.0000 C   0  0  0  0  0  0  0  0  0  0  0  0
  1  2  2  0  0  0  0
  2  3  1  0  0  0  0
  2  4  1  0  0  0  0
  4  5  1  0  0  0  0
  4  6  2  0  0  0  0
  5  7  1  0  0  0  0
  5  8  2  0  0  0  0
  6  9  1  0  0  0  0
  7 10  1  0  0  0  0
  7 11  2  0  0  0  0
  8 12  1  0  0  0  0
 10 13  1  0  0  0  0
 11 14  1  0  0  0  0
 13 15  1  0  0  0  0
 13 16  1  0  0  0  0
 15 17  2  0  0  0  0
 15 18  1  0  0  0  0
 16 19  2  0  0  0  0
 16 20  1  0  0  0  0
 21 18  1  6  0  0  0
 20 22  1  0  0  0  0
 21 23  1  0  0  0  0
 21 24  1  0  0  0  0
 22 25  1  6  0  0  0
 25 26  1  0  0  0  0
 26 27  2  0  0  0  0
 26 28  1  0  0  0  0
 28 29  1  0  0  0  0
 29 30  1  0  0  0  0
 29 31  1  0  0  0  0
 29 32  1  0  0  0  0
  9 10  2  0  0  0  0
 12 14  2  0  0  0  0
 20 18  1  1  0  0  0
 22 24  1  0  0  0  0
 23 25  1  0  0  0  0
M  CHG  2   2   1   3  -1
M  END
>  <MolRegNo>
315095

>  <m>
=

>  <Value>
1030

>  <Unit>
nM

>  <Type>
Ki

>  <pValue>
5.99

>  <Ligand Efficiency>
0.26

>  <Binding Efficiency>
13.66

>  <Surface Efficiency>
5.28

>  <Assay Index>
236083

>  <Assay Category>


>  <Assay Organism>
Homo sapiens

>  <Target ID>
56

>  <Target Name>
Androgen Receptor

>  <Target Organism>
Homo sapiens

>  <Target Description>
Target is a single protein chain

>  <Sequence Accession>
P10275

>  <Reference>
Bioorg Med Chem Lett 14 (24), 6107-6111 (2004)

>  <Pubmed ID>
15546739

>  <DOI>
10.1016/j.bmcl.2004.09.049

$$$$
315455
Actelion Java MolfileCreator 1.0

 28 31  0  0  1  0  0  0  0  0999 V2000
    0.0000   -0.0000   -0.0000 O   0  0  0  0  0  0  0  0  0  0  0  0
   -0.7504   -1.2781   -0.0000 N   0  0  0  0  0  0  0  0  0  0  0  0
   -0.0235   -2.5445   -0.0000 O   0  0  0  0  0  0  0  0  0  0  0  0
   -2.2513   -1.2664   -0.0000 C   0  0  0  0  0  0  0  0  0  0  0  0
   -3.0135   -2.5327   -0.0000 C   0  0  0  0  0  0  0  0  0  0  0  0
   -3.0135    0.0352   -0.0000 C   0  0  0  0  0  0  0  0  0  0  0  0
   -4.5027   -2.5210   -0.0000 C   0  0  0  0  0  0  0  0  0  0  0  0
   -4.5144    0.0469   -0.0000 C   0  0  0  0  0  0  0  0  0  0  0  0
   -5.2531   -1.2312   -0.0000 C   0  0  0  0  0  0  0  0  0  0  0  0
   -6.7423   -1.2195   -0.0000 N   0  0  0  0  0  0  0  0  0  0  0  0
   -7.6217    0.0117   -0.0000 C   0  0  0  0  0  0  0  0  0  0  0  0
   -7.6217   -2.4038   -0.0000 C   0  0  0  0  0  0  0  0  0  0  0  0
   -7.1878    1.4305   -0.0000 O   0  0  0  0  0  0  0  0  0  0  0  0
   -9.0522   -0.4456   -0.0000 N   0  0  0  0  0  0  0  0  0  0  0  0
   -7.1878   -3.8108   -0.0000 O   0  0  0  0  0  0  0  0  0  0  0  0
   -9.0522   -1.9230   -0.0000 C   0  0  0  0  0  0  0  0  0  0  0  0
  -10.3303    0.3049   -0.0000 C   0  0  0  0  0  0  0  0  0  0  0  0
  -10.3303   -2.6735   -0.0000 C   0  0  0  0  0  0  0  0  0  0  0  0
  -11.6201   -0.4338   -0.0000 C   0  0  0  0  0  0  0  0  0  0  0  0
   -9.6150   -0.9732   -0.0000 C   0  0  0  0  0  0  0  0  0  0  0  0
  -11.6201   -1.8996   -0.0000 N   0  0  0  0  0  0  0  0  0  0  0  0
  -12.9217   -2.6500   -0.0000 C   0  0  0  0  0  0  0  0  0  0  0  0
  -12.9334   -4.1157   -0.0000 O   0  0  0  0  0  0  0  0  0  0  0  0
  -14.2232   -1.8761   -0.0000 O   0  0  0  0  0  0  0  0  0  0  0  0
  -15.5248   -2.6265   -0.0000 C   0  0  0  0  0  0  0  0  0  0  0  0
  -15.5365   -4.0923   -0.0000 C   0  0  0  0  0  0  0  0  0  0  0  0
  -16.8381   -3.3418   -0.0000 C   0  0  0  0  0  0  0  0  0  0  0  0
  -16.8263   -1.8527   -0.0000 C   0  0  0  0  0  0  0  0  0  0  0  0
  1  2  2  0  0  0  0
  2  3  1  0  0  0  0
  2  4  1  0  0  0  0
  4  5  2  0  0  0  0
  4  6  1  0  0  0  0
  5  7  1  0  0  0  0
  6  8  2  0  0  0  0
  7  9  2  0  0  0  0
  9 10  1  0  0  0  0
 10 11  1  0  0  0  0
 10 12  1  0  0  0  0
 11 13  2  0  0  0  0
 11 14  1  0  0  0  0
 12 15  2  0  0  0  0
 12 16  1  0  0  0  0
 17 14  1  6  0  0  0
 16 18  1  0  0  0  0
 17 19  1  0  0  0  0
 17 20  1  0  0  0  0
 18 21  1  6  0  0  0
 21 22  1  0  0  0  0
 22 23  2  0  0  0  0
 22 24  1  0  0  0  0
 24 25  1  0  0  0  0
 25 26  1  0  0  0  0
 25 27  1  0  0  0  0
 25 28  1  0  0  0  0
  8  9  1  0  0  0  0
 16 14  1  6  0  0  0
 18 20  1  0  0  0  0
 19 21  1  0  0  0  0
M  CHG  2   2   1   3  -1
M  END
>  <MolRegNo>
315455

>  <m>
=

>  <Value>
230

>  <Unit>
nM

>  <Type>
Ki

>  <pValue>
6.64

>  <Ligand Efficiency>
0.32

>  <Binding Efficiency>
17.09

>  <Surface Efficiency>
5.86

>  <Assay Index>
236083

>  <Assay Category>


>  <Assay Organism>
Homo sapiens

>  <Target ID>
56

>  <Target Name>
Androgen Receptor

>  <Target Organism>
Homo sapiens

>  <Target Description>
Target is a single protein chain

>  <Sequence Accession>
P10275

>  <Reference>
Bioorg Med Chem Lett 14 (24), 6107-6111 (2004)

>  <Pubmed ID>
15546739

>  <DOI>
10.1016/j.bmcl.2004.09.049

$$$$
315280
Actelion Java MolfileCreator 1.0

 27 30  0  0  1  0  0  0  0  0999 V2000
    0.0000   -0.0000   -0.0000 O   0  0  0  0  0  0  0  0  0  0  0  0
   -0.4652    1.4089   -0.0000 C   0  0  0  0  0  0  0  0  0  0  0  0
    0.3987    2.6184   -0.0000 N   0  0  0  0  0  0  0  0  0  0  0  0
   -1.8741    1.8873   -0.0000 N   0  0  0  0  0  0  0  0  0  0  0  0
    1.8608    2.6316   -0.0000 C   0  0  0  0  0  0  0  0  0  0  0  0
   -0.4918    3.8544   -0.0000 C   0  0  0  0  0  0  0  0  0  0  0  0
   -1.8873    3.3760   -0.0000 C   0  0  0  0  0  0  0  0  0  0  0  0
   -3.1766    1.1563   -0.0000 C   0  0  0  0  0  0  0  0  0  0  0  0
    2.5918    3.9342   -0.0000 C   0  0  0  0  0  0  0  0  0  0  0  0
    2.5918    1.3690   -0.0000 C   0  0  0  0  0  0  0  0  0  0  0  0
   -0.0532    5.2633   -0.0000 O   0  0  0  0  0  0  0  0  0  0  0  0
   -3.1899    4.1336   -0.0000 C   0  0  0  0  0  0  0  0  0  0  0  0
   -4.4791    1.9139   -0.0000 C   0  0  0  0  0  0  0  0  0  0  0  0
   -2.4722    2.8576   -0.0000 C   0  0  0  0  0  0  0  0  0  0  0  0
    4.0538    3.9608   -0.0000 C   0  0  0  0  0  0  0  0  0  0  0  0
    4.0671    1.3690   -0.0000 C   0  0  0  0  0  0  0  0  0  0  0  0
   -4.4924    3.4025   -0.0000 N   0  0  0  0  0  0  0  0  0  0  0  0
    4.8114    2.6715   -0.0000 C   0  0  0  0  0  0  0  0  0  0  0  0
   -5.7949    4.1601   -0.0000 C   0  0  0  0  0  0  0  0  0  0  0  0
    6.2734    2.6848   -0.0000 C   0  0  0  0  0  0  0  0  0  0  0  0
   -5.8082    5.6620   -0.0000 O   0  0  0  0  0  0  0  0  0  0  0  0
   -7.0709    3.4291   -0.0000 O   0  0  0  0  0  0  0  0  0  0  0  0
    7.7487    2.6981   -0.0000 N   0  0  0  0  0  0  0  0  0  0  0  0
   -8.3734    4.1867   -0.0000 C   0  0  0  0  0  0  0  0  0  0  0  0
   -8.4133    5.6753   -0.0000 C   0  0  0  0  0  0  0  0  0  0  0  0
   -9.7025    4.9443   -0.0000 C   0  0  0  0  0  0  0  0  0  0  0  0
   -9.6760    3.4557   -0.0000 C   0  0  0  0  0  0  0  0  0  0  0  0
  1  2  2  0  0  0  0
  2  3  1  0  0  0  0
  2  4  1  0  0  0  0
  3  5  1  0  0  0  0
  3  6  1  0  0  0  0
  7  4  1  6  0  0  0
  8  4  1  6  0  0  0
  5  9  2  0  0  0  0
  5 10  1  0  0  0  0
  6 11  2  0  0  0  0
  7 12  1  0  0  0  0
  8 13  1  0  0  0  0
  8 14  1  0  0  0  0
  9 15  1  0  0  0  0
 10 16  2  0  0  0  0
 12 17  1  6  0  0  0
 15 18  2  0  0  0  0
 17 19  1  0  0  0  0
 18 20  1  0  0  0  0
 19 21  2  0  0  0  0
 19 22  1  0  0  0  0
 20 23  3  0  0  0  0
 22 24  1  0  0  0  0
 24 25  1  0  0  0  0
 24 26  1  0  0  0  0
 24 27  1  0  0  0  0
  6  7  1  0  0  0  0
 12 14  1  0  0  0  0
 13 17  1  0  0  0  0
 16 18  1  0  0  0  0
M  END
>  <MolRegNo>
315280

>  <m>
=

>  <Value>
240

>  <Unit>
nM

>  <Type>
Ki

>  <pValue>
6.62

>  <Ligand Efficiency>
0.33

>  <Binding Efficiency>
17.97

>  <Surface Efficiency>
7.05

>  <Assay Index>
236083

>  <Assay Category>


>  <Assay Organism>
Homo sapiens

>  <Target ID>
56

>  <Target Name>
Androgen Receptor

>  <Target Organism>
Homo sapiens

>  <Target Description>
Target is a single protein chain

>  <Sequence Accession>
P10275

>  <Reference>
Bioorg Med Chem Lett 14 (24), 6107-6111 (2004)

>  <Pubmed ID>
15546739

>  <DOI>
10.1016/j.bmcl.2004.09.049

$$$$
315066
Actelion Java MolfileCreator 1.0

 27 30  0  0  1  0  0  0  0  0999 V2000
    0.0000   -0.0000   -0.0000 O   0  0  0  0  0  0  0  0  0  0  0  0
   -0.4657    1.4238   -0.0000 C   0  0  0  0  0  0  0  0  0  0  0  0
    0.3992    2.6346   -0.0000 N   0  0  0  0  0  0  0  0  0  0  0  0
   -1.8762    1.9028   -0.0000 N   0  0  0  0  0  0  0  0  0  0  0  0
    1.8496    2.6479   -0.0000 C   0  0  0  0  0  0  0  0  0  0  0  0
   -0.4923    3.8588   -0.0000 C   0  0  0  0  0  0  0  0  0  0  0  0
   -1.8895    3.3931   -0.0000 C   0  0  0  0  0  0  0  0  0  0  0  0
   -3.1802    1.1710   -0.0000 C   0  0  0  0  0  0  0  0  0  0  0  0
    2.5814    3.9520   -0.0000 C   0  0  0  0  0  0  0  0  0  0  0  0
    2.5814    1.3972   -0.0000 C   0  0  0  0  0  0  0  0  0  0  0  0
   -0.0532    5.2959   -0.0000 O   0  0  0  0  0  0  0  0  0  0  0  0
   -3.1935    4.1516   -0.0000 C   0  0  0  0  0  0  0  0  0  0  0  0
   -4.4842    1.9294   -0.0000 C   0  0  0  0  0  0  0  0  0  0  0  0
   -2.4750    2.8742   -0.0000 C   0  0  0  0  0  0  0  0  0  0  0  0
    4.0318    3.9786   -0.0000 C   0  0  0  0  0  0  0  0  0  0  0  0
    4.0584    1.3839   -0.0000 C   0  0  0  0  0  0  0  0  0  0  0  0
   -4.4975    3.4197   -0.0000 N   0  0  0  0  0  0  0  0  0  0  0  0
    4.7903    2.6879   -0.0000 C   0  0  0  0  0  0  0  0  0  0  0  0
   -5.8015    4.1649   -0.0000 C   0  0  0  0  0  0  0  0  0  0  0  0
    6.2406    2.7012   -0.0000 C   0  0  0  0  0  0  0  0  0  0  0  0
   -5.8148    5.6685   -0.0000 O   0  0  0  0  0  0  0  0  0  0  0  0
   -7.0789    3.4330   -0.0000 O   0  0  0  0  0  0  0  0  0  0  0  0
    7.7176    2.7278   -0.0000 N   0  0  0  0  0  0  0  0  0  0  0  0
   -8.3829    4.1915   -0.0000 C   0  0  0  0  0  0  0  0  0  0  0  0
   -8.4229    5.6951   -0.0000 C   0  0  0  0  0  0  0  0  0  0  0  0
   -9.6870    4.9499   -0.0000 C   0  0  0  0  0  0  0  0  0  0  0  0
   -9.6870    3.4596   -0.0000 C   0  0  0  0  0  0  0  0  0  0  0  0
  1  2  2  0  0  0  0
  2  3  1  0  0  0  0
  2  4  1  0  0  0  0
  3  5  1  0  0  0  0
  3  6  1  0  0  0  0
  7  4  1  1  0  0  0
  8  4  1  6  0  0  0
  5  9  2  0  0  0  0
  5 10  1  0  0  0  0
  6 11  2  0  0  0  0
  7 12  1  0  0  0  0
  8 13  1  0  0  0  0
  8 14  1  0  0  0  0
  9 15  1  0  0  0  0
 10 16  2  0  0  0  0
 12 17  1  6  0  0  0
 15 18  2  0  0  0  0
 17 19  1  0  0  0  0
 18 20  1  0  0  0  0
 19 21  2  0  0  0  0
 19 22  1  0  0  0  0
 20 23  3  0  0  0  0
 22 24  1  0  0  0  0
 24 25  1  0  0  0  0
 24 26  1  0  0  0  0
 24 27  1  0  0  0  0
  6  7  1  0  0  0  0
 12 14  1  0  0  0  0
 13 17  1  0  0  0  0
 16 18  1  0  0  0  0
M  END
>  <MolRegNo>
315066

>  <m>
=

>  <Value>
190

>  <Unit>
nM

>  <Type>
Ki

>  <pValue>
6.72

>  <Ligand Efficiency>
0.34

>  <Binding Efficiency>
18.24

>  <Surface Efficiency>
7.15

>  <Assay Index>
236083

>  <Assay Category>


>  <Assay Organism>
Homo sapiens

>  <Target ID>
56

>  <Target Name>
Androgen Receptor

>  <Target Organism>
Homo sapiens

>  <Target Description>
Target is a single protein chain

>  <Sequence Accession>
P10275

>  <Reference>
Bioorg Med Chem Lett 14 (24), 6107-6111 (2004)

>  <Pubmed ID>
15546739

>  <DOI>
10.1016/j.bmcl.2004.09.049

$$$$
314669
Actelion Java MolfileCreator 1.0

 32 35  0  0  1  0  0  0  0  0999 V2000
    0.0000   -0.0000   -0.0000 F   0  0  0  0  0  0  0  0  0  0  0  0
    0.5265    1.4742   -0.0000 C   0  0  0  0  0  0  0  0  0  0  0  0
    2.0533    1.2373   -0.0000 F   0  0  0  0  0  0  0  0  0  0  0  0
    1.1978    0.3159   -0.0000 F   0  0  0  0  0  0  0  0  0  0  0  0
   -0.2501    2.7772   -0.0000 C   0  0  0  0  0  0  0  0  0  0  0  0
    0.5002    4.0803   -0.0000 C   0  0  0  0  0  0  0  0  0  0  0  0
   -1.7374    2.8036   -0.0000 C   0  0  0  0  0  0  0  0  0  0  0  0
    1.9612    4.0935   -0.0000 C   0  0  0  0  0  0  0  0  0  0  0  0
   -0.2764    5.3834   -0.0000 C   0  0  0  0  0  0  0  0  0  0  0  0
   -2.5008    4.0935   -0.0000 C   0  0  0  0  0  0  0  0  0  0  0  0
    3.4354    4.1066   -0.0000 N   0  0  0  0  0  0  0  0  0  0  0  0
   -1.7637    5.3965   -0.0000 C   0  0  0  0  0  0  0  0  0  0  0  0
   -3.9882    4.1066   -0.0000 N   0  0  0  0  0  0  0  0  0  0  0  0
   -4.8701    2.9220   -0.0000 C   0  0  0  0  0  0  0  0  0  0  0  0
   -4.8701    5.3439   -0.0000 C   0  0  0  0  0  0  0  0  0  0  0  0
   -4.4357    1.5400   -0.0000 O   0  0  0  0  0  0  0  0  0  0  0  0
   -6.2916    3.3959   -0.0000 N   0  0  0  0  0  0  0  0  0  0  0  0
   -4.4357    6.7523   -0.0000 O   0  0  0  0  0  0  0  0  0  0  0  0
   -6.2916    4.8832   -0.0000 C   0  0  0  0  0  0  0  0  0  0  0  0
   -7.5947    2.6851   -0.0000 C   0  0  0  0  0  0  0  0  0  0  0  0
   -7.5947    5.6466   -0.0000 C   0  0  0  0  0  0  0  0  0  0  0  0
   -6.3179    6.3837   -0.0000 C   0  0  0  0  0  0  0  0  0  0  0  0
   -8.8846    3.4222   -0.0000 C   0  0  0  0  0  0  0  0  0  0  0  0
   -6.8839    4.3699   -0.0000 C   0  0  0  0  0  0  0  0  0  0  0  0
   -8.8846    4.9095   -0.0000 N   0  0  0  0  0  0  0  0  0  0  0  0
  -10.1876    5.6730   -0.0000 C   0  0  0  0  0  0  0  0  0  0  0  0
  -10.2140    7.1603   -0.0000 O   0  0  0  0  0  0  0  0  0  0  0  0
  -11.4775    4.9359   -0.0000 O   0  0  0  0  0  0  0  0  0  0  0  0
  -12.7938    5.6730   -0.0000 C   0  0  0  0  0  0  0  0  0  0  0  0
  -14.0837    6.4364   -0.0000 C   0  0  0  0  0  0  0  0  0  0  0  0
  -14.0837    4.9359   -0.0000 C   0  0  0  0  0  0  0  0  0  0  0  0
  -12.8069    7.1735   -0.0000 C   0  0  0  0  0  0  0  0  0  0  0  0
  1  2  1  0  0  0  0
  2  3  1  0  0  0  0
  2  4  1  0  0  0  0
  2  5  1  0  0  0  0
  5  6  2  0  0  0  0
  5  7  1  0  0  0  0
  6  8  1  0  0  0  0
  6  9  1  0  0  0  0
  7 10  2  0  0  0  0
  8 11  3  0  0  0  0
  9 12  2  0  0  0  0
 10 13  1  0  0  0  0
 13 14  1  0  0  0  0
 13 15  1  0  0  0  0
 14 16  2  0  0  0  0
 14 17  1  0  0  0  0
 15 18  2  0  0  0  0
 15 19  1  0  0  0  0
 20 17  1  6  0  0  0
 19 21  1  0  0  0  0
 19 22  1  1  0  0  0
 20 23  1  0  0  0  0
 20 24  1  0  0  0  0
 21 25  1  6  0  0  0
 25 26  1  0  0  0  0
 26 27  2  0  0  0  0
 26 28  1  0  0  0  0
 28 29  1  0  0  0  0
 29 30  1  0  0  0  0
 29 31  1  0  0  0  0
 29 32  1  0  0  0  0
 10 12  1  0  0  0  0
 17 19  1  0  0  0  0
 21 24  1  0  0  0  0
 23 25  1  0  0  0  0
M  END
>  <MolRegNo>
314669

>  <m>
=

>  <Value>
1400

>  <Unit>
nM

>  <Type>
Ki

>  <pValue>
5.85

>  <Ligand Efficiency>
0.25

>  <Binding Efficiency>
13

>  <Surface Efficiency>
6.23

>  <Assay Index>
236083

>  <Assay Category>


>  <Assay Organism>
Homo sapiens

>  <Target ID>
56

>  <Target Name>
Androgen Receptor

>  <Target Organism>
Homo sapiens

>  <Target Description>
Target is a single protein chain

>  <Sequence Accession>
P10275

>  <Reference>
Bioorg Med Chem Lett 14 (24), 6107-6111 (2004)

>  <Pubmed ID>
15546739

>  <DOI>
10.1016/j.bmcl.2004.09.049

$$$$
315044
Actelion Java MolfileCreator 1.0

 25 29  0  0  1  0  0  0  0  0999 V2000
    0.0000   -0.0000   -0.0000 O   0  0  0  0  0  0  0  0  0  0  0  0
   -0.7584   -1.2906   -0.0000 N   0  0  0  0  0  0  0  0  0  0  0  0
   -0.0266   -2.5680   -0.0000 O   0  0  0  0  0  0  0  0  0  0  0  0
   -2.2620   -1.2773   -0.0000 C   0  0  0  0  0  0  0  0  0  0  0  0
   -3.0204   -2.5680   -0.0000 C   0  0  0  0  0  0  0  0  0  0  0  0
   -3.0204    0.0266   -0.0000 C   0  0  0  0  0  0  0  0  0  0  0  0
   -4.5106   -2.5414   -0.0000 C   0  0  0  0  0  0  0  0  0  0  0  0
   -2.2886   -3.8187   -0.0000 C   0  0  0  0  0  0  0  0  0  0  0  0
   -4.5239    0.0266   -0.0000 C   0  0  0  0  0  0  0  0  0  0  0  0
   -5.2690   -1.2374   -0.0000 C   0  0  0  0  0  0  0  0  0  0  0  0
   -5.2690   -3.8054   -0.0000 C   0  0  0  0  0  0  0  0  0  0  0  0
   -3.0337   -5.0827   -0.0000 C   0  0  0  0  0  0  0  0  0  0  0  0
   -6.7725   -1.2241   -0.0000 N   0  0  0  0  0  0  0  0  0  0  0  0
   -4.5372   -5.0694   -0.0000 C   0  0  0  0  0  0  0  0  0  0  0  0
   -7.6507   -2.4083   -0.0000 C   0  0  0  0  0  0  0  0  0  0  0  0
   -7.6507    0.0133   -0.0000 C   0  0  0  0  0  0  0  0  0  0  0  0
   -7.1983   -3.7921   -0.0000 O   0  0  0  0  0  0  0  0  0  0  0  0
   -9.0877   -1.9426   -0.0000 N   0  0  0  0  0  0  0  0  0  0  0  0
   -7.1983    1.4104   -0.0000 O   0  0  0  0  0  0  0  0  0  0  0  0
   -9.0877   -0.4657   -0.0000 C   0  0  0  0  0  0  0  0  0  0  0  0
  -10.3917   -2.6744   -0.0000 C   0  0  0  0  0  0  0  0  0  0  0  0
  -10.3917    0.2927   -0.0000 C   0  0  0  0  0  0  0  0  0  0  0  0
   -9.6599   -0.9713   -0.0000 C   0  0  0  0  0  0  0  0  0  0  0  0
  -11.6823   -1.9160   -0.0000 C   0  0  0  0  0  0  0  0  0  0  0  0
  -11.6823   -0.4391   -0.0000 C   0  0  0  0  0  0  0  0  0  0  0  0
  1  2  2  0  0  0  0
  2  3  1  0  0  0  0
  2  4  1  0  0  0  0
  4  5  1  0  0  0  0
  4  6  2  0  0  0  0
  5  7  1  0  0  0  0
  5  8  2  0  0  0  0
  6  9  1  0  0  0  0
  7 10  1  0  0  0  0
  7 11  2  0  0  0  0
  8 12  1  0  0  0  0
 10 13  1  0  0  0  0
 11 14  1  0  0  0  0
 13 15  1  0  0  0  0
 13 16  1  0  0  0  0
 15 17  2  0  0  0  0
 15 18  1  0  0  0  0
 16 19  2  0  0  0  0
 16 20  1  0  0  0  0
 21 18  1  6  0  0  0
 20 22  1  0  0  0  0
 21 23  1  0  0  0  0
 21 24  1  0  0  0  0
 22 25  1  6  0  0  0
  9 10  2  0  0  0  0
 12 14  2  0  0  0  0
 20 18  1  6  0  0  0
 22 23  1  0  0  0  0
 24 25  1  0  0  0  0
M  CHG  2   2   1   3  -1
M  END
>  <MolRegNo>
315044

>  <m>
=

>  <Value>
1

>  <Unit>
nM

>  <Type>
Ki

>  <pValue>
9

>  <Ligand Efficiency>
0.49

>  <Binding Efficiency>
26.68

>  <Surface Efficiency>
10.74

>  <Assay Index>
236083

>  <Assay Category>


>  <Assay Organism>
Homo sapiens

>  <Target ID>
56

>  <Target Name>
Androgen Receptor

>  <Target Organism>
Homo sapiens

>  <Target Description>
Target is a single protein chain

>  <Sequence Accession>
P10275

>  <Reference>
Bioorg Med Chem Lett 14 (24), 6107-6111 (2004)

>  <Pubmed ID>
15546739

>  <DOI>
10.1016/j.bmcl.2004.09.049

$$$$
314825
Actelion Java MolfileCreator 1.0

 25 28  0  0  1  0  0  0  0  0999 V2000
    0.0000   -0.0000   -0.0000 F   0  0  0  0  0  0  0  0  0  0  0  0
    0.5575   -1.4545   -0.0000 C   0  0  0  0  0  0  0  0  0  0  0  0
    1.2120   -0.2667   -0.0000 F   0  0  0  0  0  0  0  0  0  0  0  0
    2.0847   -1.1757   -0.0000 F   0  0  0  0  0  0  0  0  0  0  0  0
   -0.1818   -2.7271   -0.0000 C   0  0  0  0  0  0  0  0  0  0  0  0
    0.5575   -4.0240   -0.0000 C   0  0  0  0  0  0  0  0  0  0  0  0
   -1.6847   -2.7150   -0.0000 C   0  0  0  0  0  0  0  0  0  0  0  0
    2.0362   -4.0119   -0.0000 N   0  0  0  0  0  0  0  0  0  0  0  0
   -0.2060   -5.2845   -0.0000 C   0  0  0  0  0  0  0  0  0  0  0  0
   -2.4241   -4.0119   -0.0000 C   0  0  0  0  0  0  0  0  0  0  0  0
    2.7756   -2.6907   -0.0000 O   0  0  0  0  0  0  0  0  0  0  0  0
    2.7756   -5.2724   -0.0000 O   0  0  0  0  0  0  0  0  0  0  0  0
   -1.6969   -5.2724   -0.0000 C   0  0  0  0  0  0  0  0  0  0  0  0
   -3.9270   -3.9998   -0.0000 N   0  0  0  0  0  0  0  0  0  0  0  0
   -4.8118   -2.7513   -0.0000 C   0  0  0  0  0  0  0  0  0  0  0  0
   -4.8118   -5.1754   -0.0000 C   0  0  0  0  0  0  0  0  0  0  0  0
   -4.3755   -1.3333   -0.0000 O   0  0  0  0  0  0  0  0  0  0  0  0
   -6.2420   -3.2119   -0.0000 C   0  0  0  0  0  0  0  0  0  0  0  0
   -4.3755   -6.5814   -0.0000 O   0  0  0  0  0  0  0  0  0  0  0  0
   -6.2420   -4.7149   -0.0000 C   0  0  0  0  0  0  0  0  0  0  0  0
   -7.5389   -2.4726   -0.0000 C   0  0  0  0  0  0  0  0  0  0  0  0
   -7.5389   -5.4300   -0.0000 C   0  0  0  0  0  0  0  0  0  0  0  0
   -6.8117   -3.7331   -0.0000 C   0  0  0  0  0  0  0  0  0  0  0  0
   -8.8237   -3.1877   -0.0000 C   0  0  0  0  0  0  0  0  0  0  0  0
   -8.8237   -4.6906   -0.0000 C   0  0  0  0  0  0  0  0  0  0  0  0
  1  2  1  0  0  0  0
  2  3  1  0  0  0  0
  2  4  1  0  0  0  0
  2  5  1  0  0  0  0
  5  6  2  0  0  0  0
  5  7  1  0  0  0  0
  6  8  1  0  0  0  0
  6  9  1  0  0  0  0
  7 10  2  0  0  0  0
  8 11  2  0  0  0  0
  8 12  1  0  0  0  0
  9 13  2  0  0  0  0
 10 14  1  0  0  0  0
 14 15  1  0  0  0  0
 14 16  1  0  0  0  0
 15 17  2  0  0  0  0
 18 15  1  6  0  0  0
 16 19  2  0  0  0  0
 20 16  1  6  0  0  0
 18 21  1  0  0  0  0
 20 22  1  0  0  0  0
 21 23  1  1  0  0  0
 21 24  1  0  0  0  0
 22 25  1  6  0  0  0
 10 13  1  0  0  0  0
 18 20  1  0  0  0  0
 22 23  1  0  0  0  0
 24 25  1  0  0  0  0
M  CHG  2   8   1  12  -1
M  END
>  <MolRegNo>
314825

>  <m>
=

>  <Value>
5

>  <Unit>
nM

>  <Type>
Ki

>  <pValue>
8.3

>  <Ligand Efficiency>
0.45

>  <Binding Efficiency>
23.43

>  <Surface Efficiency>
10.31

>  <Assay Index>
236083

>  <Assay Category>


>  <Assay Organism>
Homo sapiens

>  <Target ID>
56

>  <Target Name>
Androgen Receptor

>  <Target Organism>
Homo sapiens

>  <Target Description>
Target is a single protein chain

>  <Sequence Accession>
P10275

>  <Reference>
Bioorg Med Chem Lett 14 (24), 6107-6111 (2004)

>  <Pubmed ID>
15546739

>  <DOI>
10.1016/j.bmcl.2004.09.049

$$$$
314861
Actelion Java MolfileCreator 1.0

 34 38  0  0  1  0  0  0  0  0999 V2000
    0.0000   -0.0000   -0.0000 F   0  0  0  0  0  0  0  0  0  0  0  0
    1.1796   -0.5837   -0.0000 C   0  0  0  0  0  0  0  0  0  0  0  0
    2.4807    0.1702   -0.0000 C   0  0  0  0  0  0  0  0  0  0  0  0
    1.1674   -2.0916   -0.0000 C   0  0  0  0  0  0  0  0  0  0  0  0
    3.7576   -0.5594   -0.0000 C   0  0  0  0  0  0  0  0  0  0  0  0
    2.4686   -2.8091   -0.0000 C   0  0  0  0  0  0  0  0  0  0  0  0
    3.7454   -2.0673   -0.0000 C   0  0  0  0  0  0  0  0  0  0  0  0
    5.0466   -2.7847   -0.0000 O   0  0  0  0  0  0  0  0  0  0  0  0
    6.3477   -2.0430   -0.0000 C   0  0  0  0  0  0  0  0  0  0  0  0
    6.3356   -0.5107   -0.0000 O   0  0  0  0  0  0  0  0  0  0  0  0
    7.6246   -2.7604   -0.0000 N   0  0  0  0  0  0  0  0  0  0  0  0
    8.9136   -2.0186   -0.0000 C   0  0  0  0  0  0  0  0  0  0  0  0
    7.6124   -4.2683   -0.0000 C   0  0  0  0  0  0  0  0  0  0  0  0
   10.1904   -2.7361   -0.0000 C   0  0  0  0  0  0  0  0  0  0  0  0
    9.6311   -3.2955   -0.0000 C   0  0  0  0  0  0  0  0  0  0  0  0
    8.9014   -5.0101   -0.0000 C   0  0  0  0  0  0  0  0  0  0  0  0
   10.1783   -4.2440   -0.0000 N   0  0  0  0  0  0  0  0  0  0  0  0
   11.6132   -2.2618   -0.0000 C   0  0  0  0  0  0  0  0  0  0  0  0
   11.6011   -4.6939   -0.0000 C   0  0  0  0  0  0  0  0  0  0  0  0
   12.0632   -0.8269   -0.0000 O   0  0  0  0  0  0  0  0  0  0  0  0
   12.4644   -3.4779   -0.0000 N   0  0  0  0  0  0  0  0  0  0  0  0
   12.0510   -6.1045   -0.0000 O   0  0  0  0  0  0  0  0  0  0  0  0
   13.9845   -3.4657   -0.0000 C   0  0  0  0  0  0  0  0  0  0  0  0
   14.7141   -2.1402   -0.0000 C   0  0  0  0  0  0  0  0  0  0  0  0
   14.7141   -4.7669   -0.0000 C   0  0  0  0  0  0  0  0  0  0  0  0
   16.1977   -2.1281   -0.0000 C   0  0  0  0  0  0  0  0  0  0  0  0
   16.1977   -4.7547   -0.0000 C   0  0  0  0  0  0  0  0  0  0  0  0
   16.9516   -3.4292   -0.0000 C   0  0  0  0  0  0  0  0  0  0  0  0
   16.9516   -0.8026   -0.0000 C   0  0  0  0  0  0  0  0  0  0  0  0
   18.4352   -3.4171   -0.0000 C   0  0  0  0  0  0  0  0  0  0  0  0
   18.4839   -0.5351   -0.0000 F   0  0  0  0  0  0  0  0  0  0  0  0
   16.3801    0.6810   -0.0000 F   0  0  0  0  0  0  0  0  0  0  0  0
   17.6205    0.3770   -0.0000 F   0  0  0  0  0  0  0  0  0  0  0  0
   19.9310   -3.4049   -0.0000 N   0  0  0  0  0  0  0  0  0  0  0  0
  1  2  1  0  0  0  0
  2  3  2  0  0  0  0
  2  4  1  0  0  0  0
  3  5  1  0  0  0  0
  4  6  2  0  0  0  0
  5  7  2  0  0  0  0
  7  8  1  0  0  0  0
  8  9  1  0  0  0  0
  9 10  2  0  0  0  0
  9 11  1  0  0  0  0
 12 11  1  6  0  0  0
 11 13  1  0  0  0  0
 12 14  1  0  0  0  0
 12 15  1  0  0  0  0
 13 16  1  0  0  0  0
 14 17  1  6  0  0  0
 14 18  1  0  0  0  0
 17 19  1  0  0  0  0
 18 20  2  0  0  0  0
 18 21  1  0  0  0  0
 19 22  2  0  0  0  0
 21 23  1  0  0  0  0
 23 24  2  0  0  0  0
 23 25  1  0  0  0  0
 24 26  1  0  0  0  0
 25 27  2  0  0  0  0
 26 28  2  0  0  0  0
 26 29  1  0  0  0  0
 28 30  1  0  0  0  0
 29 31  1  0  0  0  0
 29 32  1  0  0  0  0
 29 33  1  0  0  0  0
 30 34  3  0  0  0  0
  6  7  1  0  0  0  0
 15 16  1  0  0  0  0
 16 17  1  6  0  0  0
 19 21  1  0  0  0  0
 27 28  1  0  0  0  0
M  END
>  <MolRegNo>
314861

>  <m>
=

>  <Value>
10

>  <Unit>
nM

>  <Type>
Ki

>  <pValue>
8

>  <Ligand Efficiency>
0.32

>  <Binding Efficiency>
16.86

>  <Surface Efficiency>
8.52

>  <Assay Index>
236083

>  <Assay Category>


>  <Assay Organism>
Homo sapiens

>  <Target ID>
56

>  <Target Name>
Androgen Receptor

>  <Target Organism>
Homo sapiens

>  <Target Description>
Target is a single protein chain

>  <Sequence Accession>
P10275

>  <Reference>
Bioorg Med Chem Lett 14 (24), 6107-6111 (2004)

>  <Pubmed ID>
15546739

>  <DOI>
10.1016/j.bmcl.2004.09.049

$$$$
314560
Actelion Java MolfileCreator 1.0

 35 40  0  0  1  0  0  0  0  0999 V2000
    0.0000   -0.0000   -0.0000 F   0  0  0  0  0  0  0  0  0  0  0  0
    1.1796   -0.5778   -0.0000 C   0  0  0  0  0  0  0  0  0  0  0  0
    2.4916    0.1926   -0.0000 C   0  0  0  0  0  0  0  0  0  0  0  0
    1.1916   -2.0823   -0.0000 C   0  0  0  0  0  0  0  0  0  0  0  0
    3.7795   -0.5537   -0.0000 C   0  0  0  0  0  0  0  0  0  0  0  0
    2.4796   -2.8045   -0.0000 C   0  0  0  0  0  0  0  0  0  0  0  0
    3.7675   -2.0462   -0.0000 C   0  0  0  0  0  0  0  0  0  0  0  0
    5.0554   -2.7925   -0.0000 O   0  0  0  0  0  0  0  0  0  0  0  0
    6.3433   -2.0222   -0.0000 C   0  0  0  0  0  0  0  0  0  0  0  0
    6.3313   -0.5055   -0.0000 O   0  0  0  0  0  0  0  0  0  0  0  0
    7.6312   -2.7684   -0.0000 N   0  0  0  0  0  0  0  0  0  0  0  0
    8.9192   -1.9981   -0.0000 C   0  0  0  0  0  0  0  0  0  0  0  0
    7.6192   -4.2610   -0.0000 C   0  0  0  0  0  0  0  0  0  0  0  0
   10.1951   -2.7444   -0.0000 C   0  0  0  0  0  0  0  0  0  0  0  0
    9.6414   -3.2860   -0.0000 C   0  0  0  0  0  0  0  0  0  0  0  0
    8.9071   -4.9952   -0.0000 C   0  0  0  0  0  0  0  0  0  0  0  0
   10.1830   -4.2369   -0.0000 N   0  0  0  0  0  0  0  0  0  0  0  0
   11.6033   -2.2629   -0.0000 C   0  0  0  0  0  0  0  0  0  0  0  0
   11.5913   -4.6823   -0.0000 C   0  0  0  0  0  0  0  0  0  0  0  0
   12.0487   -0.8185   -0.0000 O   0  0  0  0  0  0  0  0  0  0  0  0
   12.4580   -3.4666   -0.0000 N   0  0  0  0  0  0  0  0  0  0  0  0
   12.0367   -6.1026   -0.0000 O   0  0  0  0  0  0  0  0  0  0  0  0
   13.9746   -3.4545   -0.0000 C   0  0  0  0  0  0  0  0  0  0  0  0
   14.7088   -2.1425   -0.0000 C   0  0  0  0  0  0  0  0  0  0  0  0
   14.7088   -4.7545   -0.0000 C   0  0  0  0  0  0  0  0  0  0  0  0
   16.1893   -2.1305   -0.0000 C   0  0  0  0  0  0  0  0  0  0  0  0
   13.9505   -0.8546   -0.0000 C   0  0  0  0  0  0  0  0  0  0  0  0
   16.1893   -4.7424   -0.0000 C   0  0  0  0  0  0  0  0  0  0  0  0
   16.9476   -3.4305   -0.0000 C   0  0  0  0  0  0  0  0  0  0  0  0
   16.9356   -0.8185   -0.0000 C   0  0  0  0  0  0  0  0  0  0  0  0
   14.6727    0.4574   -0.0000 C   0  0  0  0  0  0  0  0  0  0  0  0
   18.4402   -3.4184   -0.0000 N   0  0  0  0  0  0  0  0  0  0  0  0
   16.1652    0.4935   -0.0000 C   0  0  0  0  0  0  0  0  0  0  0  0
   19.1865   -2.0944   -0.0000 O   0  0  0  0  0  0  0  0  0  0  0  0
   19.1865   -4.7063   -0.0000 O   0  0  0  0  0  0  0  0  0  0  0  0
  1  2  1  0  0  0  0
  2  3  2  0  0  0  0
  2  4  1  0  0  0  0
  3  5  1  0  0  0  0
  4  6  2  0  0  0  0
  5  7  2  0  0  0  0
  7  8  1  0  0  0  0
  8  9  1  0  0  0  0
  9 10  2  0  0  0  0
  9 11  1  0  0  0  0
 12 11  1  6  0  0  0
 11 13  1  0  0  0  0
 12 14  1  0  0  0  0
 12 15  1  0  0  0  0
 13 16  1  0  0  0  0
 14 17  1  6  0  0  0
 14 18  1  0  0  0  0
 17 19  1  0  0  0  0
 18 20  2  0  0  0  0
 18 21  1  0  0  0  0
 19 22  2  0  0  0  0
 21 23  1  0  0  0  0
 23 24  1  0  0  0  0
 23 25  2  0  0  0  0
 24 26  1  0  0  0  0
 24 27  2  0  0  0  0
 25 28  1  0  0  0  0
 26 29  1  0  0  0  0
 26 30  2  0  0  0  0
 27 31  1  0  0  0  0
 29 32  1  0  0  0  0
 30 33  1  0  0  0  0
 32 34  2  0  0  0  0
 32 35  1  0  0  0  0
  6  7  1  0  0  0  0
 15 16  1  0  0  0  0
 16 17  1  6  0  0  0
 19 21  1  0  0  0  0
 28 29  2  0  0  0  0
 31 33  2  0  0  0  0
M  CHG  2  32   1  35  -1
M  END
>  <MolRegNo>
314560

>  <m>
=

>  <Value>
10

>  <Unit>
nM

>  <Type>
Ki

>  <pValue>
8

>  <Ligand Efficiency>
0.31

>  <Binding Efficiency>
16.79

>  <Surface Efficiency>
7.06

>  <Assay Index>
236083

>  <Assay Category>


>  <Assay Organism>
Homo sapiens

>  <Target ID>
56

>  <Target Name>
Androgen Receptor

>  <Target Organism>
Homo sapiens

>  <Target Description>
Target is a single protein chain

>  <Sequence Accession>
P10275

>  <Reference>
Bioorg Med Chem Lett 14 (24), 6107-6111 (2004)

>  <Pubmed ID>
15546739

>  <DOI>
10.1016/j.bmcl.2004.09.049

$$$$
314863
Actelion Java MolfileCreator 1.0

 34 39  0  0  1  0  0  0  0  0999 V2000
    0.0000   -0.0000   -0.0000 F   0  0  0  0  0  0  0  0  0  0  0  0
    1.1309   -0.5775   -0.0000 C   0  0  0  0  0  0  0  0  0  0  0  0
    2.4422    0.1925   -0.0000 C   0  0  0  0  0  0  0  0  0  0  0  0
    1.1429   -2.0933   -0.0000 C   0  0  0  0  0  0  0  0  0  0  0  0
    3.7295   -0.5534   -0.0000 C   0  0  0  0  0  0  0  0  0  0  0  0
    2.4302   -2.8152   -0.0000 C   0  0  0  0  0  0  0  0  0  0  0  0
    3.7175   -2.0452   -0.0000 C   0  0  0  0  0  0  0  0  0  0  0  0
    5.0048   -2.7911   -0.0000 O   0  0  0  0  0  0  0  0  0  0  0  0
    6.2921   -2.0212   -0.0000 C   0  0  0  0  0  0  0  0  0  0  0  0
    6.2800   -0.5053   -0.0000 O   0  0  0  0  0  0  0  0  0  0  0  0
    7.6034   -2.7671   -0.0000 N   0  0  0  0  0  0  0  0  0  0  0  0
    8.8666   -1.9971   -0.0000 C   0  0  0  0  0  0  0  0  0  0  0  0
    7.5914   -4.2589   -0.0000 C   0  0  0  0  0  0  0  0  0  0  0  0
   10.1539   -2.7430   -0.0000 C   0  0  0  0  0  0  0  0  0  0  0  0
    9.6125   -3.2844   -0.0000 C   0  0  0  0  0  0  0  0  0  0  0  0
    8.8546   -5.0048   -0.0000 C   0  0  0  0  0  0  0  0  0  0  0  0
   10.1419   -4.2348   -0.0000 N   0  0  0  0  0  0  0  0  0  0  0  0
   11.5735   -2.2738   -0.0000 C   0  0  0  0  0  0  0  0  0  0  0  0
   11.5615   -4.6799   -0.0000 C   0  0  0  0  0  0  0  0  0  0  0  0
   12.0187   -0.8301   -0.0000 O   0  0  0  0  0  0  0  0  0  0  0  0
   12.4277   -3.4648   -0.0000 N   0  0  0  0  0  0  0  0  0  0  0  0
   12.0066   -6.0996   -0.0000 O   0  0  0  0  0  0  0  0  0  0  0  0
   13.9195   -3.4528   -0.0000 C   0  0  0  0  0  0  0  0  0  0  0  0
   14.6654   -2.1415   -0.0000 C   0  0  0  0  0  0  0  0  0  0  0  0
   14.6654   -4.7642   -0.0000 C   0  0  0  0  0  0  0  0  0  0  0  0
   16.1572   -2.1294   -0.0000 C   0  0  0  0  0  0  0  0  0  0  0  0
   13.8954   -0.8542   -0.0000 C   0  0  0  0  0  0  0  0  0  0  0  0
   16.1572   -4.7521   -0.0000 C   0  0  0  0  0  0  0  0  0  0  0  0
   16.9031   -3.4408   -0.0000 C   0  0  0  0  0  0  0  0  0  0  0  0
   16.8791   -0.8181   -0.0000 C   0  0  0  0  0  0  0  0  0  0  0  0
   14.6173    0.4572   -0.0000 C   0  0  0  0  0  0  0  0  0  0  0  0
   18.3949   -3.4047   -0.0000 C   0  0  0  0  0  0  0  0  0  0  0  0
   16.1091    0.4933   -0.0000 C   0  0  0  0  0  0  0  0  0  0  0  0
   19.8867   -3.3927   -0.0000 N   0  0  0  0  0  0  0  0  0  0  0  0
  1  2  1  0  0  0  0
  2  3  2  0  0  0  0
  2  4  1  0  0  0  0
  3  5  1  0  0  0  0
  4  6  2  0  0  0  0
  5  7  2  0  0  0  0
  7  8  1  0  0  0  0
  8  9  1  0  0  0  0
  9 10  2  0  0  0  0
  9 11  1  0  0  0  0
 12 11  1  6  0  0  0
 11 13  1  0  0  0  0
 12 14  1  0  0  0  0
 12 15  1  0  0  0  0
 13 16  1  0  0  0  0
 14 17  1  6  0  0  0
 14 18  1  0  0  0  0
 17 19  1  0  0  0  0
 18 20  2  0  0  0  0
 18 21  1  0  0  0  0
 19 22  2  0  0  0  0
 21 23  1  0  0  0  0
 23 24  1  0  0  0  0
 23 25  2  0  0  0  0
 24 26  1  0  0  0  0
 24 27  2  0  0  0  0
 25 28  1  0  0  0  0
 26 29  1  0  0  0  0
 26 30  2  0  0  0  0
 27 31  1  0  0  0  0
 29 32  1  0  0  0  0
 30 33  1  0  0  0  0
 32 34  3  0  0  0  0
  6  7  1  0  0  0  0
 15 16  1  0  0  0  0
 16 17  1  6  0  0  0
 19 21  1  0  0  0  0
 28 29  2  0  0  0  0
 31 33  2  0  0  0  0
M  END
>  <MolRegNo>
314863

>  <m>
=

>  <Value>
40

>  <Unit>
nM

>  <Type>
Ki

>  <pValue>
7.4

>  <Ligand Efficiency>
0.3

>  <Binding Efficiency>
16.21

>  <Surface Efficiency>
7.87

>  <Assay Index>
236083

>  <Assay Category>


>  <Assay Organism>
Homo sapiens

>  <Target ID>
56

>  <Target Name>
Androgen Receptor

>  <Target Organism>
Homo sapiens

>  <Target Description>
Target is a single protein chain

>  <Sequence Accession>
P10275

>  <Reference>
Bioorg Med Chem Lett 14 (24), 6107-6111 (2004)

>  <Pubmed ID>
15546739

>  <DOI>
10.1016/j.bmcl.2004.09.049

$$$$
314643
Actelion Java MolfileCreator 1.0

 32 36  0  0  1  0  0  0  0  0999 V2000
    0.0000   -0.0000   -0.0000 F   0  0  0  0  0  0  0  0  0  0  0  0
    0.5532   -1.4357   -0.0000 C   0  0  0  0  0  0  0  0  0  0  0  0
    1.2118   -0.2503   -0.0000 F   0  0  0  0  0  0  0  0  0  0  0  0
    2.0811   -1.1723   -0.0000 F   0  0  0  0  0  0  0  0  0  0  0  0
   -0.1976   -2.7265   -0.0000 C   0  0  0  0  0  0  0  0  0  0  0  0
    0.5532   -4.0041   -0.0000 C   0  0  0  0  0  0  0  0  0  0  0  0
   -1.6859   -2.7133   -0.0000 C   0  0  0  0  0  0  0  0  0  0  0  0
    2.0284   -3.9777   -0.0000 C   0  0  0  0  0  0  0  0  0  0  0  0
   -0.2239   -5.2685   -0.0000 C   0  0  0  0  0  0  0  0  0  0  0  0
   -2.4499   -3.9909   -0.0000 C   0  0  0  0  0  0  0  0  0  0  0  0
    3.4904   -3.9514   -0.0000 N   0  0  0  0  0  0  0  0  0  0  0  0
   -1.7123   -5.2554   -0.0000 C   0  0  0  0  0  0  0  0  0  0  0  0
   -3.9514   -3.9777   -0.0000 N   0  0  0  0  0  0  0  0  0  0  0  0
   -4.8339   -5.1632   -0.0000 C   0  0  0  0  0  0  0  0  0  0  0  0
   -4.8339   -2.7396   -0.0000 C   0  0  0  0  0  0  0  0  0  0  0  0
   -4.3992   -6.5330   -0.0000 O   0  0  0  0  0  0  0  0  0  0  0  0
   -6.2564   -4.6890   -0.0000 N   0  0  0  0  0  0  0  0  0  0  0  0
   -4.3992   -1.3040   -0.0000 O   0  0  0  0  0  0  0  0  0  0  0  0
   -6.2564   -3.2006   -0.0000 C   0  0  0  0  0  0  0  0  0  0  0  0
   -7.5604   -5.4003   -0.0000 C   0  0  0  0  0  0  0  0  0  0  0  0
   -7.5604   -2.4235   -0.0000 C   0  0  0  0  0  0  0  0  0  0  0  0
   -8.8511   -4.6627   -0.0000 C   0  0  0  0  0  0  0  0  0  0  0  0
   -6.8228   -3.7143   -0.0000 C   0  0  0  0  0  0  0  0  0  0  0  0
   -8.8511   -3.1743   -0.0000 N   0  0  0  0  0  0  0  0  0  0  0  0
  -10.1551   -2.3972   -0.0000 C   0  0  0  0  0  0  0  0  0  0  0  0
  -10.1683   -0.8957   -0.0000 O   0  0  0  0  0  0  0  0  0  0  0  0
  -11.4591   -3.1480   -0.0000 C   0  0  0  0  0  0  0  0  0  0  0  0
  -11.4722   -4.6100   -0.0000 C   0  0  0  0  0  0  0  0  0  0  0  0
  -12.7499   -2.3708   -0.0000 C   0  0  0  0  0  0  0  0  0  0  0  0
  -12.7630   -5.3476   -0.0000 C   0  0  0  0  0  0  0  0  0  0  0  0
  -14.0802   -3.1084   -0.0000 C   0  0  0  0  0  0  0  0  0  0  0  0
  -14.0933   -4.5836   -0.0000 C   0  0  0  0  0  0  0  0  0  0  0  0
  1  2  1  0  0  0  0
  2  3  1  0  0  0  0
  2  4  1  0  0  0  0
  2  5  1  0  0  0  0
  5  6  2  0  0  0  0
  5  7  1  0  0  0  0
  6  8  1  0  0  0  0
  6  9  1  0  0  0  0
  7 10  2  0  0  0  0
  8 11  3  0  0  0  0
  9 12  2  0  0  0  0
 10 13  1  0  0  0  0
 13 14  1  0  0  0  0
 13 15  1  0  0  0  0
 14 16  2  0  0  0  0
 14 17  1  0  0  0  0
 15 18  2  0  0  0  0
 15 19  1  0  0  0  0
 20 17  1  6  0  0  0
 19 21  1  0  0  0  0
 20 22  1  0  0  0  0
 20 23  1  0  0  0  0
 21 24  1  6  0  0  0
 24 25  1  0  0  0  0
 25 26  2  0  0  0  0
 25 27  1  0  0  0  0
 27 28  2  0  0  0  0
 27 29  1  0  0  0  0
 28 30  1  0  0  0  0
 29 31  2  0  0  0  0
 30 32  2  0  0  0  0
 10 12  1  0  0  0  0
 19 17  1  6  0  0  0
 21 23  1  0  0  0  0
 22 24  1  0  0  0  0
 31 32  1  0  0  0  0
M  END
>  <MolRegNo>
314643

>  <m>
=

>  <Value>
120

>  <Unit>
nM

>  <Type>
Ki

>  <pValue>
6.92

>  <Ligand Efficiency>
0.3

>  <Binding Efficiency>
15.72

>  <Surface Efficiency>
8.17

>  <Assay Index>
236083

>  <Assay Category>


>  <Assay Organism>
Homo sapiens

>  <Target ID>
56

>  <Target Name>
Androgen Receptor

>  <Target Organism>
Homo sapiens

>  <Target Description>
Target is a single protein chain

>  <Sequence Accession>
P10275

>  <Reference>
Bioorg Med Chem Lett 14 (24), 6107-6111 (2004)

>  <Pubmed ID>
15546739

>  <DOI>
10.1016/j.bmcl.2004.09.049

$$$$
314728
Actelion Java MolfileCreator 1.0

 36 40  0  0  1  0  0  0  0  0999 V2000
    0.0000   -0.0000   -0.0000 F   0  0  0  0  0  0  0  0  0  0  0  0
   -0.7057   -1.1584   -0.0000 C   0  0  0  0  0  0  0  0  0  0  0  0
    0.8255   -0.9054   -0.0000 F   0  0  0  0  0  0  0  0  0  0  0  0
   -1.2783    0.3063   -0.0000 F   0  0  0  0  0  0  0  0  0  0  0  0
   -1.4380   -2.4367   -0.0000 C   0  0  0  0  0  0  0  0  0  0  0  0
   -0.6924   -3.7283   -0.0000 C   0  0  0  0  0  0  0  0  0  0  0  0
   -2.9427   -2.4234   -0.0000 C   0  0  0  0  0  0  0  0  0  0  0  0
    0.7723   -3.7150   -0.0000 C   0  0  0  0  0  0  0  0  0  0  0  0
   -1.4647   -5.0065   -0.0000 C   0  0  0  0  0  0  0  0  0  0  0  0
   -3.6883   -3.7016   -0.0000 C   0  0  0  0  0  0  0  0  0  0  0  0
    2.2636   -3.6883   -0.0000 N   0  0  0  0  0  0  0  0  0  0  0  0
   -2.9693   -4.9932   -0.0000 C   0  0  0  0  0  0  0  0  0  0  0  0
   -5.2063   -3.6883   -0.0000 N   0  0  0  0  0  0  0  0  0  0  0  0
   -6.0851   -4.8734   -0.0000 C   0  0  0  0  0  0  0  0  0  0  0  0
   -6.0851   -2.4633   -0.0000 C   0  0  0  0  0  0  0  0  0  0  0  0
   -5.6590   -6.2715   -0.0000 O   0  0  0  0  0  0  0  0  0  0  0  0
   -7.5231   -4.4074   -0.0000 N   0  0  0  0  0  0  0  0  0  0  0  0
   -5.6590   -1.0386   -0.0000 O   0  0  0  0  0  0  0  0  0  0  0  0
   -7.5231   -2.9160   -0.0000 C   0  0  0  0  0  0  0  0  0  0  0  0
   -8.8280   -5.1264   -0.0000 C   0  0  0  0  0  0  0  0  0  0  0  0
   -8.8280   -2.1704   -0.0000 C   0  0  0  0  0  0  0  0  0  0  0  0
  -10.1063   -4.3807   -0.0000 C   0  0  0  0  0  0  0  0  0  0  0  0
   -8.1090   -3.4220   -0.0000 C   0  0  0  0  0  0  0  0  0  0  0  0
  -10.1063   -2.8894   -0.0000 N   0  0  0  0  0  0  0  0  0  0  0  0
  -11.4245   -2.1438   -0.0000 C   0  0  0  0  0  0  0  0  0  0  0  0
  -11.4378   -0.6258   -0.0000 O   0  0  0  0  0  0  0  0  0  0  0  0
  -12.7161   -2.8628   -0.0000 C   0  0  0  0  0  0  0  0  0  0  0  0
  -12.7294   -4.3541   -0.0000 C   0  0  0  0  0  0  0  0  0  0  0  0
  -14.0210   -2.1171   -0.0000 C   0  0  0  0  0  0  0  0  0  0  0  0
  -14.0343   -5.0731   -0.0000 C   0  0  0  0  0  0  0  0  0  0  0  0
  -15.3259   -2.8362   -0.0000 C   0  0  0  0  0  0  0  0  0  0  0  0
  -15.3392   -4.3275   -0.0000 C   0  0  0  0  0  0  0  0  0  0  0  0
  -16.6441   -5.0465   -0.0000 C   0  0  0  0  0  0  0  0  0  0  0  0
  -17.9490   -4.3008   -0.0000 C   0  0  0  0  0  0  0  0  0  0  0  0
  -19.2406   -5.0199   -0.0000 C   0  0  0  0  0  0  0  0  0  0  0  0
  -20.5455   -4.2742   -0.0000 C   0  0  0  0  0  0  0  0  0  0  0  0
  1  2  1  0  0  0  0
  2  3  1  0  0  0  0
  2  4  1  0  0  0  0
  2  5  1  0  0  0  0
  5  6  2  0  0  0  0
  5  7  1  0  0  0  0
  6  8  1  0  0  0  0
  6  9  1  0  0  0  0
  7 10  2  0  0  0  0
  8 11  3  0  0  0  0
  9 12  2  0  0  0  0
 10 13  1  0  0  0  0
 13 14  1  0  0  0  0
 13 15  1  0  0  0  0
 14 16  2  0  0  0  0
 14 17  1  0  0  0  0
 15 18  2  0  0  0  0
 15 19  1  0  0  0  0
 20 17  1  6  0  0  0
 19 21  1  0  0  0  0
 20 22  1  0  0  0  0
 20 23  1  0  0  0  0
 21 24  1  6  0  0  0
 24 25  1  0  0  0  0
 25 26  2  0  0  0  0
 25 27  1  0  0  0  0
 27 28  2  0  0  0  0
 27 29  1  0  0  0  0
 28 30  1  0  0  0  0
 29 31  2  0  0  0  0
 30 32  2  0  0  0  0
 32 33  1  0  0  0  0
 33 34  1  0  0  0  0
 34 35  1  0  0  0  0
 35 36  1  0  0  0  0
 10 12  1  0  0  0  0
 19 17  1  6  0  0  0
 21 23  1  0  0  0  0
 22 24  1  0  0  0  0
 31 32  1  0  0  0  0
M  END
>  <MolRegNo>
314728

>  <m>
=

>  <Value>
690

>  <Unit>
nM

>  <Type>
Ki

>  <pValue>
6.16

>  <Ligand Efficiency>
0.23

>  <Binding Efficiency>
12.41

>  <Surface Efficiency>
7.27

>  <Assay Index>
236083

>  <Assay Category>


>  <Assay Organism>
Homo sapiens

>  <Target ID>
56

>  <Target Name>
Androgen Receptor

>  <Target Organism>
Homo sapiens

>  <Target Description>
Target is a single protein chain

>  <Sequence Accession>
P10275

>  <Reference>
Bioorg Med Chem Lett 14 (24), 6107-6111 (2004)

>  <Pubmed ID>
15546739

>  <DOI>
10.1016/j.bmcl.2004.09.049

$$$$
314458
Actelion Java MolfileCreator 1.0

 33 37  0  0  1  0  0  0  0  0999 V2000
    0.0000   -0.0000   -0.0000 O   0  0  0  0  0  0  0  0  0  0  0  0
   -0.7586   -1.2777   -0.0000 N   0  0  0  0  0  0  0  0  0  0  0  0
   -0.0266   -2.5554   -0.0000 O   0  0  0  0  0  0  0  0  0  0  0  0
   -2.2626   -1.2644   -0.0000 C   0  0  0  0  0  0  0  0  0  0  0  0
   -3.0212   -2.5421   -0.0000 C   0  0  0  0  0  0  0  0  0  0  0  0
   -3.0212    0.0399   -0.0000 C   0  0  0  0  0  0  0  0  0  0  0  0
   -4.5118   -2.5288   -0.0000 C   0  0  0  0  0  0  0  0  0  0  0  0
   -4.5118    0.0532   -0.0000 C   0  0  0  0  0  0  0  0  0  0  0  0
   -5.2705   -1.2245   -0.0000 C   0  0  0  0  0  0  0  0  0  0  0  0
   -6.7744   -1.2111   -0.0000 N   0  0  0  0  0  0  0  0  0  0  0  0
   -7.6395   -2.3957   -0.0000 C   0  0  0  0  0  0  0  0  0  0  0  0
   -7.6395    0.0133   -0.0000 C   0  0  0  0  0  0  0  0  0  0  0  0
   -7.2136   -3.7798   -0.0000 O   0  0  0  0  0  0  0  0  0  0  0  0
   -9.0769   -1.9032   -0.0000 N   0  0  0  0  0  0  0  0  0  0  0  0
   -7.2136    1.4241   -0.0000 O   0  0  0  0  0  0  0  0  0  0  0  0
   -9.0769   -0.4525   -0.0000 C   0  0  0  0  0  0  0  0  0  0  0  0
  -10.3812   -2.6352   -0.0000 C   0  0  0  0  0  0  0  0  0  0  0  0
  -10.3812    0.3061   -0.0000 C   0  0  0  0  0  0  0  0  0  0  0  0
  -11.6589   -1.8766   -0.0000 C   0  0  0  0  0  0  0  0  0  0  0  0
   -9.6625   -0.9317   -0.0000 C   0  0  0  0  0  0  0  0  0  0  0  0
  -11.6589   -0.4259   -0.0000 N   0  0  0  0  0  0  0  0  0  0  0  0
  -12.9766    0.3327   -0.0000 C   0  0  0  0  0  0  0  0  0  0  0  0
  -12.9899    1.8367   -0.0000 O   0  0  0  0  0  0  0  0  0  0  0  0
  -14.2809   -0.3993   -0.0000 C   0  0  0  0  0  0  0  0  0  0  0  0
  -14.2942   -1.8500   -0.0000 C   0  0  0  0  0  0  0  0  0  0  0  0
  -15.5852    0.3860   -0.0000 C   0  0  0  0  0  0  0  0  0  0  0  0
  -15.5719   -2.5820   -0.0000 C   0  0  0  0  0  0  0  0  0  0  0  0
  -16.8895   -0.3460   -0.0000 C   0  0  0  0  0  0  0  0  0  0  0  0
  -16.8895   -1.8234   -0.0000 C   0  0  0  0  0  0  0  0  0  0  0  0
  -18.1938   -2.5820   -0.0000 C   0  0  0  0  0  0  0  0  0  0  0  0
  -19.4981   -1.7968   -0.0000 C   0  0  0  0  0  0  0  0  0  0  0  0
  -20.8157   -2.5554   -0.0000 C   0  0  0  0  0  0  0  0  0  0  0  0
  -22.0801   -1.7701   -0.0000 C   0  0  0  0  0  0  0  0  0  0  0  0
  1  2  2  0  0  0  0
  2  3  1  0  0  0  0
  2  4  1  0  0  0  0
  4  5  2  0  0  0  0
  4  6  1  0  0  0  0
  5  7  1  0  0  0  0
  6  8  2  0  0  0  0
  7  9  2  0  0  0  0
  9 10  1  0  0  0  0
 10 11  1  0  0  0  0
 10 12  1  0  0  0  0
 11 13  2  0  0  0  0
 11 14  1  0  0  0  0
 12 15  2  0  0  0  0
 12 16  1  0  0  0  0
 17 14  1  6  0  0  0
 16 18  1  0  0  0  0
 17 19  1  0  0  0  0
 17 20  1  0  0  0  0
 18 21  1  6  0  0  0
 21 22  1  0  0  0  0
 22 23  2  0  0  0  0
 22 24  1  0  0  0  0
 24 25  2  0  0  0  0
 24 26  1  0  0  0  0
 25 27  1  0  0  0  0
 26 28  2  0  0  0  0
 27 29  2  0  0  0  0
 29 30  1  0  0  0  0
 30 31  1  0  0  0  0
 31 32  1  0  0  0  0
 32 33  1  0  0  0  0
  8  9  1  0  0  0  0
 16 14  1  6  0  0  0
 18 20  1  0  0  0  0
 19 21  1  0  0  0  0
 28 29  1  0  0  0  0
M  CHG  2   2   1   3  -1
M  END
>  <MolRegNo>
314458

>  <m>
=

>  <Value>
70

>  <Unit>
nM

>  <Type>
Ki

>  <pValue>
7.16

>  <Ligand Efficiency>
0.3

>  <Binding Efficiency>
15.95

>  <Surface Efficiency>
6.88

>  <Assay Index>
236083

>  <Assay Category>


>  <Assay Organism>
Homo sapiens

>  <Target ID>
56

>  <Target Name>
Androgen Receptor

>  <Target Organism>
Homo sapiens

>  <Target Description>
Target is a single protein chain

>  <Sequence Accession>
P10275

>  <Reference>
Bioorg Med Chem Lett 14 (24), 6107-6111 (2004)

>  <Pubmed ID>
15546739

>  <DOI>
10.1016/j.bmcl.2004.09.049

$$$$
314799
Actelion Java MolfileCreator 1.0

 32 36  0  0  1  0  0  0  0  0999 V2000
    0.0000   -0.0000   -0.0000 O   0  0  0  0  0  0  0  0  0  0  0  0
   -0.4763    1.4158   -0.0000 C   0  0  0  0  0  0  0  0  0  0  0  0
    0.3837    2.6198   -0.0000 N   0  0  0  0  0  0  0  0  0  0  0  0
   -1.9053    1.8921   -0.0000 N   0  0  0  0  0  0  0  0  0  0  0  0
    1.8524    2.6330   -0.0000 C   0  0  0  0  0  0  0  0  0  0  0  0
   -0.5028    3.8503   -0.0000 C   0  0  0  0  0  0  0  0  0  0  0  0
   -1.9186    3.3872   -0.0000 C   0  0  0  0  0  0  0  0  0  0  0  0
   -3.2020    1.1776   -0.0000 C   0  0  0  0  0  0  0  0  0  0  0  0
    2.5934    1.3628   -0.0000 C   0  0  0  0  0  0  0  0  0  0  0  0
    2.5934    3.9297   -0.0000 C   0  0  0  0  0  0  0  0  0  0  0  0
   -0.0529    5.2661   -0.0000 O   0  0  0  0  0  0  0  0  0  0  0  0
   -3.2152    4.1547   -0.0000 C   0  0  0  0  0  0  0  0  0  0  0  0
   -4.4854    1.9186   -0.0000 C   0  0  0  0  0  0  0  0  0  0  0  0
   -2.4743    2.8712   -0.0000 C   0  0  0  0  0  0  0  0  0  0  0  0
    4.0753    1.3761   -0.0000 C   0  0  0  0  0  0  0  0  0  0  0  0
    4.0753    3.9430   -0.0000 C   0  0  0  0  0  0  0  0  0  0  0  0
   -4.4987    3.4137   -0.0000 N   0  0  0  0  0  0  0  0  0  0  0  0
    4.8030    2.6727   -0.0000 C   0  0  0  0  0  0  0  0  0  0  0  0
   -5.8218    4.1811   -0.0000 C   0  0  0  0  0  0  0  0  0  0  0  0
    6.2849    2.6860   -0.0000 C   0  0  0  0  0  0  0  0  0  0  0  0
   -5.8350    5.6895   -0.0000 O   0  0  0  0  0  0  0  0  0  0  0  0
   -7.1185    3.4402   -0.0000 C   0  0  0  0  0  0  0  0  0  0  0  0
    7.7536    2.6992   -0.0000 N   0  0  0  0  0  0  0  0  0  0  0  0
   -7.1317    1.9715   -0.0000 C   0  0  0  0  0  0  0  0  0  0  0  0
   -8.4152    4.2076   -0.0000 C   0  0  0  0  0  0  0  0  0  0  0  0
   -8.4152    1.2438   -0.0000 C   0  0  0  0  0  0  0  0  0  0  0  0
   -9.7118    3.4799   -0.0000 C   0  0  0  0  0  0  0  0  0  0  0  0
   -9.7383    1.9979   -0.0000 C   0  0  0  0  0  0  0  0  0  0  0  0
  -11.0350    1.2570   -0.0000 C   0  0  0  0  0  0  0  0  0  0  0  0
  -12.3317    2.0244   -0.0000 C   0  0  0  0  0  0  0  0  0  0  0  0
  -13.6283    1.2834   -0.0000 C   0  0  0  0  0  0  0  0  0  0  0  0
  -14.9118    2.0509   -0.0000 C   0  0  0  0  0  0  0  0  0  0  0  0
  1  2  2  0  0  0  0
  2  3  1  0  0  0  0
  2  4  1  0  0  0  0
  3  5  1  0  0  0  0
  3  6  1  0  0  0  0
  7  4  1  6  0  0  0
  8  4  1  6  0  0  0
  5  9  2  0  0  0  0
  5 10  1  0  0  0  0
  6 11  2  0  0  0  0
  7 12  1  0  0  0  0
  8 13  1  0  0  0  0
  8 14  1  0  0  0  0
  9 15  1  0  0  0  0
 10 16  2  0  0  0  0
 12 17  1  6  0  0  0
 15 18  2  0  0  0  0
 17 19  1  0  0  0  0
 18 20  1  0  0  0  0
 19 21  2  0  0  0  0
 19 22  1  0  0  0  0
 20 23  3  0  0  0  0
 22 24  2  0  0  0  0
 22 25  1  0  0  0  0
 24 26  1  0  0  0  0
 25 27  2  0  0  0  0
 26 28  2  0  0  0  0
 28 29  1  0  0  0  0
 29 30  1  0  0  0  0
 30 31  1  0  0  0  0
 31 32  1  0  0  0  0
  6  7  1  0  0  0  0
 12 14  1  0  0  0  0
 13 17  1  0  0  0  0
 16 18  1  0  0  0  0
 27 28  1  0  0  0  0
M  END
>  <MolRegNo>
314799

>  <m>
=

>  <Value>
100

>  <Unit>
nM

>  <Type>
Ki

>  <pValue>
7

>  <Ligand Efficiency>
0.3

>  <Binding Efficiency>
16.34

>  <Surface Efficiency>
8.26

>  <Assay Index>
236083

>  <Assay Category>


>  <Assay Organism>
Homo sapiens

>  <Target ID>
56

>  <Target Name>
Androgen Receptor

>  <Target Organism>
Homo sapiens

>  <Target Description>
Target is a single protein chain

>  <Sequence Accession>
P10275

>  <Reference>
Bioorg Med Chem Lett 14 (24), 6107-6111 (2004)

>  <Pubmed ID>
15546739

>  <DOI>
10.1016/j.bmcl.2004.09.049

$$$$
312156
Actelion Java MolfileCreator 1.0

 33 37  0  0  1  0  0  0  0  0999 V2000
    0.0000   -0.0000   -0.0000 O   0  0  0  0  0  0  0  0  0  0  0  0
    1.2883    0.7565   -0.0000 C   0  0  0  0  0  0  0  0  0  0  0  0
    2.5767   -0.0000   -0.0000 C   0  0  0  0  0  0  0  0  0  0  0  0
    1.3002    2.2694   -0.0000 C   0  0  0  0  0  0  0  0  0  0  0  0
    3.8650    0.7565   -0.0000 C   0  0  0  0  0  0  0  0  0  0  0  0
    2.5885    3.0140   -0.0000 C   0  0  0  0  0  0  0  0  0  0  0  0
    3.8532    2.2694   -0.0000 C   0  0  0  0  0  0  0  0  0  0  0  0
    5.1534    0.0355   -0.0000 C   0  0  0  0  0  0  0  0  0  0  0  0
    5.1416    3.0258   -0.0000 C   0  0  0  0  0  0  0  0  0  0  0  0
    6.4417    0.7919   -0.0000 C   0  0  0  0  0  0  0  0  0  0  0  0
    5.1297    4.5388   -0.0000 C   0  0  0  0  0  0  0  0  0  0  0  0
    6.4063    2.2812   -0.0000 C   0  0  0  0  0  0  0  0  0  0  0  0
    3.8178    5.2952   -0.0000 C   0  0  0  0  0  0  0  0  0  0  0  0
    6.3944    5.2952   -0.0000 C   0  0  0  0  0  0  0  0  0  0  0  0
    7.6946    3.0377   -0.0000 C   0  0  0  0  0  0  0  0  0  0  0  0
    3.8769    6.8081   -0.0000 C   0  0  0  0  0  0  0  0  0  0  0  0
    2.4585    4.6215   -0.0000 C   0  0  0  0  0  0  0  0  0  0  0  0
    7.6828    4.5624   -0.0000 C   0  0  0  0  0  0  0  0  0  0  0  0
    9.1130    2.6003   -0.0000 C   0  0  0  0  0  0  0  0  0  0  0  0
    2.5885    7.6355   -0.0000 C   0  0  0  0  0  0  0  0  0  0  0  0
    1.1938    5.4489   -0.0000 C   0  0  0  0  0  0  0  0  0  0  0  0
    9.1012    5.0234   -0.0000 C   0  0  0  0  0  0  0  0  0  0  0  0
    7.6710    6.0753   -0.0000 C   0  0  0  0  0  0  0  0  0  0  0  0
    9.9876    3.8178   -0.0000 C   0  0  0  0  0  0  0  0  0  0  0  0
    1.2529    6.9618   -0.0000 C   0  0  0  0  0  0  0  0  0  0  0  0
    9.4794    6.4890   -0.0000 O   0  0  0  0  0  0  0  0  0  0  0  0
   10.5432    5.4252   -0.0000 C   0  0  0  0  0  0  0  0  0  0  0  0
   -0.0355    7.7655   -0.0000 N   0  0  0  0  0  0  0  0  0  0  0  0
   11.9615    5.8389   -0.0000 C   0  0  0  0  0  0  0  0  0  0  0  0
    0.3428    9.2312   -0.0000 C   0  0  0  0  0  0  0  0  0  0  0  0
   -1.3474    7.0445   -0.0000 C   0  0  0  0  0  0  0  0  0  0  0  0
   -0.7328   10.3304   -0.0000 O   0  0  0  0  0  0  0  0  0  0  0  0
    1.8320    9.2666   -0.0000 C   0  0  0  0  0  0  0  0  0  0  0  0
  1  2  2  0  0  0  0
  2  3  1  0  0  0  0
  2  4  1  0  0  0  0
  3  5  2  0  0  0  0
  4  6  1  0  0  0  0
  5  7  1  0  0  0  0
  5  8  1  0  0  0  0
  7  9  2  0  0  0  0
  8 10  1  0  0  0  0
  9 11  1  0  0  0  0
  9 12  1  0  0  0  0
 11 13  1  1  0  0  0
 11 14  1  0  0  0  0
 12 15  1  0  0  0  0
 13 16  2  0  0  0  0
 13 17  1  0  0  0  0
 14 18  1  0  0  0  0
 15 19  1  1  0  0  0
 16 20  1  0  0  0  0
 17 21  2  0  0  0  0
 18 22  1  0  0  0  0
 18 23  1  1  0  0  0
 19 24  1  0  0  0  0
 20 25  2  0  0  0  0
 22 26  1  0  0  0  0
 22 27  1  6  0  0  0
 25 28  1  0  0  0  0
 27 29  3  0  0  0  0
 28 30  1  0  0  0  0
 28 31  1  0  0  0  0
 30 32  2  0  0  0  0
 30 33  1  0  0  0  0
  6  7  1  0  0  0  0
 12 10  1  6  0  0  0
 15 18  1  0  0  0  0
 21 25  1  0  0  0  0
 22 24  1  0  0  0  0
M  END
>  <MolRegNo>
312156

>  <m>
=

>  <Value>
8.9

>  <Unit>
nM

>  <Type>
Ki

>  <pValue>
8.05

>  <Ligand Efficiency>
0.33

>  <Binding Efficiency>
18.15

>  <Surface Efficiency>
13.97

>  <Assay Index>
235287

>  <Assay Category>


>  <Assay Organism>
Homo sapiens

>  <Target ID>
56

>  <Target Name>
Androgen Receptor

>  <Target Organism>
Homo sapiens

>  <Target Description>
Target is a single protein chain

>  <Sequence Accession>
P10275

>  <Reference>
J Med Chem 47 (17), 4213-4230 (2004)

>  <Pubmed ID>
15293993

>  <DOI>
10.1021/jm0400045

$$$$
312088
Actelion Java MolfileCreator 1.0

 67 75  0  0  1  0  0  0  0  0999 V2000
    0.0000   -0.0000   -0.0000 O   0  0  0  0  0  0  0  0  0  0  0  0
    1.2956    0.7774   -0.0000 C   0  0  0  0  0  0  0  0  0  0  0  0
    2.5782    0.0130   -0.0000 C   0  0  0  0  0  0  0  0  0  0  0  0
    1.2826    2.2932   -0.0000 C   0  0  0  0  0  0  0  0  0  0  0  0
    3.8738    0.7903   -0.0000 C   0  0  0  0  0  0  0  0  0  0  0  0
    2.5653    3.0317   -0.0000 C   0  0  0  0  0  0  0  0  0  0  0  0
    3.8609    2.3191   -0.0000 C   0  0  0  0  0  0  0  0  0  0  0  0
    5.1565    0.0648   -0.0000 C   0  0  0  0  0  0  0  0  0  0  0  0
    5.1306    3.0706   -0.0000 C   0  0  0  0  0  0  0  0  0  0  0  0
    6.4650    0.8421   -0.0000 C   0  0  0  0  0  0  0  0  0  0  0  0
    5.1176    4.5994   -0.0000 C   0  0  0  0  0  0  0  0  0  0  0  0
    6.4262    2.3191   -0.0000 C   0  0  0  0  0  0  0  0  0  0  0  0
    4.2366    5.0787   -0.0000 C   0  0  0  0  0  0  0  0  0  0  0  0
    6.4132    5.3767   -0.0000 C   0  0  0  0  0  0  0  0  0  0  0  0
    7.7088    3.0965   -0.0000 C   0  0  0  0  0  0  0  0  0  0  0  0
    3.9904    6.5687   -0.0000 C   0  0  0  0  0  0  0  0  0  0  0  0
    3.0187    4.1330   -0.0000 C   0  0  0  0  0  0  0  0  0  0  0  0
    7.6958    4.6253   -0.0000 C   0  0  0  0  0  0  0  0  0  0  0  0
    9.1340    2.6560   -0.0000 C   0  0  0  0  0  0  0  0  0  0  0  0
    2.5782    7.1387   -0.0000 C   0  0  0  0  0  0  0  0  0  0  0  0
    1.6195    4.7289   -0.0000 C   0  0  0  0  0  0  0  0  0  0  0  0
    9.1210    5.0917   -0.0000 C   0  0  0  0  0  0  0  0  0  0  0  0
    7.7088    6.2577   -0.0000 C   0  0  0  0  0  0  0  0  0  0  0  0
    9.9891    3.8738   -0.0000 C   0  0  0  0  0  0  0  0  0  0  0  0
    1.3733    6.2059   -0.0000 C   0  0  0  0  0  0  0  0  0  0  0  0
    9.0821    6.6982   -0.0000 O   0  0  0  0  0  0  0  0  0  0  0  0
   10.4166    5.8691   -0.0000 C   0  0  0  0  0  0  0  0  0  0  0  0
    0.0518    6.9833   -0.0000 N   0  0  0  0  0  0  0  0  0  0  0  0
   11.6992    6.6594   -0.0000 C   0  0  0  0  0  0  0  0  0  0  0  0
    0.0259    8.5121   -0.0000 C   0  0  0  0  0  0  0  0  0  0  0  0
   -1.2826    6.2577   -0.0000 C   0  0  0  0  0  0  0  0  0  0  0  0
    1.2956    9.3153   -0.0000 O   0  0  0  0  0  0  0  0  0  0  0  0
   -1.3215    9.1987   -0.0000 C   0  0  0  0  0  0  0  0  0  0  0  0
   -1.3345   10.7146   -0.0000 C   0  0  0  0  0  0  0  0  0  0  0  0
   -2.4228   11.7899   -0.0000 C   0  0  0  0  0  0  0  0  0  0  0  0
   -3.7313   11.0385   -0.0000 N   0  0  0  0  0  0  0  0  0  0  0  0
   -2.4357   13.3187   -0.0000 C   0  0  0  0  0  0  0  0  0  0  0  0
   -5.0528   11.8029   -0.0000 C   0  0  0  0  0  0  0  0  0  0  0  0
   -3.7831   14.0961   -0.0000 O   0  0  0  0  0  0  0  0  0  0  0  0
   -1.1531   14.0961   -0.0000 O   0  0  0  0  0  0  0  0  0  0  0  0
   -5.0658   13.3446   -0.0000 O   0  0  0  0  0  0  0  0  0  0  0  0
   -6.3743   11.0514   -0.0000 C   0  0  0  0  0  0  0  0  0  0  0  0
   -7.6958   11.8288   -0.0000 C   0  0  0  0  0  0  0  0  0  0  0  0
   -9.0044   11.0644   -0.0000 C   0  0  0  0  0  0  0  0  0  0  0  0
   -9.0174    9.4319   -0.0000 C   0  0  0  0  0  0  0  0  0  0  0  0
  -10.1057   11.7122   -0.0000 C   0  0  0  0  0  0  0  0  0  0  0  0
  -10.4814    9.0044   -0.0000 C   0  0  0  0  0  0  0  0  0  0  0  0
   -8.3048    8.1493   -0.0000 C   0  0  0  0  0  0  0  0  0  0  0  0
  -11.8029    9.7947   -0.0000 C   0  0  0  0  0  0  0  0  0  0  0  0
  -10.5332    7.4885   -0.0000 C   0  0  0  0  0  0  0  0  0  0  0  0
  -10.4684   10.2093   -0.0000 C   0  0  0  0  0  0  0  0  0  0  0  0
   -9.0951    7.0092   -0.0000 C   0  0  0  0  0  0  0  0  0  0  0  0
  -11.8158   11.2587   -0.0000 O   0  0  0  0  0  0  0  0  0  0  0  0
  -13.1374    9.0692   -0.0000 C   0  0  0  0  0  0  0  0  0  0  0  0
  -11.8418    6.7760   -0.0000 C   0  0  0  0  0  0  0  0  0  0  0  0
  -13.1762    7.5663   -0.0000 C   0  0  0  0  0  0  0  0  0  0  0  0
  -11.8547    5.2731   -0.0000 C   0  0  0  0  0  0  0  0  0  0  0  0
  -14.4977    6.8148   -0.0000 C   0  0  0  0  0  0  0  0  0  0  0  0
  -10.8053    4.2236   -0.0000 O   0  0  0  0  0  0  0  0  0  0  0  0
  -13.1762    4.5475   -0.0000 C   0  0  0  0  0  0  0  0  0  0  0  0
  -14.5107    5.3249   -0.0000 C   0  0  0  0  0  0  0  0  0  0  0  0
  -15.8192    7.5922   -0.0000 C   0  0  0  0  0  0  0  0  0  0  0  0
  -14.5107    8.3436   -0.0000 C   0  0  0  0  0  0  0  0  0  0  0  0
  -15.8322    4.5735   -0.0000 C   0  0  0  0  0  0  0  0  0  0  0  0
  -17.1407    6.8408   -0.0000 C   0  0  0  0  0  0  0  0  0  0  0  0
  -17.1537    5.3508   -0.0000 C   0  0  0  0  0  0  0  0  0  0  0  0
  -18.4363    4.5994   -0.0000 O   0  0  0  0  0  0  0  0  0  0  0  0
  1  2  2  0  0  0  0
  2  3  1  0  0  0  0
  2  4  1  0  0  0  0
  3  5  2  0  0  0  0
  4  6  1  0  0  0  0
  5  7  1  0  0  0  0
  5  8  1  0  0  0  0
  7  9  2  0  0  0  0
  8 10  1  0  0  0  0
  9 11  1  0  0  0  0
  9 12  1  0  0  0  0
 11 13  1  1  0  0  0
 11 14  1  0  0  0  0
 12 15  1  0  0  0  0
 13 16  2  0  0  0  0
 13 17  1  0  0  0  0
 14 18  1  0  0  0  0
 15 19  1  1  0  0  0
 16 20  1  0  0  0  0
 17 21  2  0  0  0  0
 18 22  1  0  0  0  0
 18 23  1  1  0  0  0
 19 24  1  0  0  0  0
 20 25  2  0  0  0  0
 22 26  1  1  0  0  0
 22 27  1  0  0  0  0
 25 28  1  0  0  0  0
 27 29  3  0  0  0  0
 28 30  1  0  0  0  0
 28 31  1  0  0  0  0
 30 32  2  0  0  0  0
 30 33  1  0  0  0  0
 33 34  1  0  0  0  0
 34 35  1  0  0  0  0
 35 36  1  6  0  0  0
 35 37  1  0  0  0  0
 36 38  1  0  0  0  0
 37 39  2  0  0  0  0
 37 40  1  0  0  0  0
 38 41  2  0  0  0  0
 38 42  1  0  0  0  0
 42 43  1  0  0  0  0
 43 44  1  0  0  0  0
 44 45  1  0  0  0  0
 44 46  1  6  0  0  0
 45 47  1  0  0  0  0
 45 48  1  1  0  0  0
 47 49  1  0  0  0  0
 47 50  1  0  0  0  0
 47 51  1  1  0  0  0
 48 52  1  0  0  0  0
 49 53  1  6  0  0  0
 49 54  1  0  0  0  0
 55 50  1  6  0  0  0
 56 54  1  1  0  0  0
 55 57  1  0  0  0  0
 56 58  1  0  0  0  0
 57 59  1  6  0  0  0
 57 60  1  0  0  0  0
 58 61  1  0  0  0  0
 58 62  1  0  0  0  0
 58 63  1  1  0  0  0
 61 64  1  6  0  0  0
 62 65  1  0  0  0  0
 64 66  1  0  0  0  0
 66 67  1  6  0  0  0
  6  7  1  0  0  0  0
 12 10  1  6  0  0  0
 15 18  1  0  0  0  0
 21 25  1  0  0  0  0
 22 24  1  0  0  0  0
 50 52  1  1  0  0  0
 55 56  1  0  0  0  0
 60 61  1  0  0  0  0
 65 66  1  0  0  0  0
M  END
>  <MolRegNo>
312088

>  <m>
=

>  <Value>
34

>  <Unit>
nM

>  <Type>
Ki

>  <pValue>
7.47

>  <Ligand Efficiency>
0.15

>  <Binding Efficiency>
8.11

>  <Surface Efficiency>
4.04

>  <Assay Index>
235287

>  <Assay Category>


>  <Assay Organism>
Homo sapiens

>  <Target ID>
56

>  <Target Name>
Androgen Receptor

>  <Target Organism>
Homo sapiens

>  <Target Description>
Target is a single protein chain

>  <Sequence Accession>
P10275

>  <Reference>
J Med Chem 47 (17), 4213-4230 (2004)

>  <Pubmed ID>
15293993

>  <DOI>
10.1021/jm0400045

$$$$
312089
Actelion Java MolfileCreator 1.0

 65 73  0  0  1  0  0  0  0  0999 V2000
    0.0000   -0.0000   -0.0000 O   0  0  0  0  0  0  0  0  0  0  0  0
    1.3052    0.7637   -0.0000 C   0  0  0  0  0  0  0  0  0  0  0  0
    2.6104    0.0139   -0.0000 C   0  0  0  0  0  0  0  0  0  0  0  0
    1.2913    2.2772   -0.0000 C   0  0  0  0  0  0  0  0  0  0  0  0
    3.8879    0.7915   -0.0000 C   0  0  0  0  0  0  0  0  0  0  0  0
    2.5966    3.0409   -0.0000 C   0  0  0  0  0  0  0  0  0  0  0  0
    3.8879    2.3050   -0.0000 C   0  0  0  0  0  0  0  0  0  0  0  0
    5.1792    0.0417   -0.0000 C   0  0  0  0  0  0  0  0  0  0  0  0
    5.1654    3.0548   -0.0000 C   0  0  0  0  0  0  0  0  0  0  0  0
    6.4567    0.8192   -0.0000 C   0  0  0  0  0  0  0  0  0  0  0  0
    5.1515    4.5822   -0.0000 C   0  0  0  0  0  0  0  0  0  0  0  0
    6.4567    2.3189   -0.0000 C   0  0  0  0  0  0  0  0  0  0  0  0
    4.2628    5.0682   -0.0000 C   0  0  0  0  0  0  0  0  0  0  0  0
    6.4428    5.3459   -0.0000 C   0  0  0  0  0  0  0  0  0  0  0  0
    7.7341    3.0825   -0.0000 C   0  0  0  0  0  0  0  0  0  0  0  0
    4.0129    6.5678   -0.0000 C   0  0  0  0  0  0  0  0  0  0  0  0
    3.0687    4.1239   -0.0000 C   0  0  0  0  0  0  0  0  0  0  0  0
    7.7203    4.6099   -0.0000 C   0  0  0  0  0  0  0  0  0  0  0  0
    9.1504    2.6243   -0.0000 C   0  0  0  0  0  0  0  0  0  0  0  0
    2.5966    7.1371   -0.0000 C   0  0  0  0  0  0  0  0  0  0  0  0
    1.6385    4.7071   -0.0000 C   0  0  0  0  0  0  0  0  0  0  0  0
    9.1366    5.0959   -0.0000 C   0  0  0  0  0  0  0  0  0  0  0  0
    7.7341    6.2623   -0.0000 C   0  0  0  0  0  0  0  0  0  0  0  0
   10.0113    3.8740   -0.0000 C   0  0  0  0  0  0  0  0  0  0  0  0
    1.4024    6.2206   -0.0000 C   0  0  0  0  0  0  0  0  0  0  0  0
    9.1088    6.7066   -0.0000 O   0  0  0  0  0  0  0  0  0  0  0  0
   10.4140    5.8874   -0.0000 C   0  0  0  0  0  0  0  0  0  0  0  0
    0.0694    6.9982   -0.0000 N   0  0  0  0  0  0  0  0  0  0  0  0
   11.6915    6.6789   -0.0000 C   0  0  0  0  0  0  0  0  0  0  0  0
    0.0833    8.7755   -0.0000 C   0  0  0  0  0  0  0  0  0  0  0  0
   -1.2636    6.2623   -0.0000 C   0  0  0  0  0  0  0  0  0  0  0  0
   -1.3191    9.3726   -0.0000 O   0  0  0  0  0  0  0  0  0  0  0  0
    1.1386    9.8447   -0.0000 C   0  0  0  0  0  0  0  0  0  0  0  0
    1.1247   11.3721   -0.0000 N   0  0  0  0  0  0  0  0  0  0  0  0
   -0.1805   12.1497   -0.0000 C   0  0  0  0  0  0  0  0  0  0  0  0
   -1.7079   12.1775   -0.0000 O   0  0  0  0  0  0  0  0  0  0  0  0
   -0.1944   13.6771   -0.0000 O   0  0  0  0  0  0  0  0  0  0  0  0
    1.1108   14.4408   -0.0000 C   0  0  0  0  0  0  0  0  0  0  0  0
    2.3883   13.7048   -0.0000 C   0  0  0  0  0  0  0  0  0  0  0  0
    1.0969   15.9682   -0.0000 C   0  0  0  0  0  0  0  0  0  0  0  0
    3.6657   14.4685   -0.0000 C   0  0  0  0  0  0  0  0  0  0  0  0
    2.3744   16.7318   -0.0000 C   0  0  0  0  0  0  0  0  0  0  0  0
    3.6518   15.9959   -0.0000 C   0  0  0  0  0  0  0  0  0  0  0  0
    4.9710   13.7326   -0.0000 C   0  0  0  0  0  0  0  0  0  0  0  0
    4.9571   16.7596   -0.0000 C   0  0  0  0  0  0  0  0  0  0  0  0
    3.6380   17.5233   -0.0000 C   0  0  0  0  0  0  0  0  0  0  0  0
    6.2623   14.4685   -0.0000 C   0  0  0  0  0  0  0  0  0  0  0  0
    6.2484   15.9959   -0.0000 C   0  0  0  0  0  0  0  0  0  0  0  0
    4.9571   18.2870   -0.0000 C   0  0  0  0  0  0  0  0  0  0  0  0
    7.3176   13.4271   -0.0000 O   0  0  0  0  0  0  0  0  0  0  0  0
    7.5536   16.7596   -0.0000 C   0  0  0  0  0  0  0  0  0  0  0  0
    6.2623   19.0507   -0.0000 C   0  0  0  0  0  0  0  0  0  0  0  0
    7.5536   18.2731   -0.0000 C   0  0  0  0  0  0  0  0  0  0  0  0
    8.9699   16.2736   -0.0000 C   0  0  0  0  0  0  0  0  0  0  0  0
    6.2623   20.4809   -0.0000 O   0  0  0  0  0  0  0  0  0  0  0  0
    8.9838   18.7313   -0.0000 C   0  0  0  0  0  0  0  0  0  0  0  0
    7.5675   19.4811   -0.0000 C   0  0  0  0  0  0  0  0  0  0  0  0
    9.7614   17.4400   -0.0000 C   0  0  0  0  0  0  0  0  0  0  0  0
    8.9977   20.3559   -0.0000 C   0  0  0  0  0  0  0  0  0  0  0  0
   10.2752   21.1335   -0.0000 C   0  0  0  0  0  0  0  0  0  0  0  0
    7.8869   21.0224   -0.0000 C   0  0  0  0  0  0  0  0  0  0  0  0
   11.5804   20.4115   -0.0000 C   0  0  0  0  0  0  0  0  0  0  0  0
   12.8578   21.1613   -0.0000 C   0  0  0  0  0  0  0  0  0  0  0  0
   12.8301   22.7164   -0.0000 O   0  0  0  0  0  0  0  0  0  0  0  0
   14.1492   20.4392   -0.0000 O   0  0  0  0  0  0  0  0  0  0  0  0
  1  2  2  0  0  0  0
  2  3  1  0  0  0  0
  2  4  1  0  0  0  0
  3  5  2  0  0  0  0
  4  6  1  0  0  0  0
  5  7  1  0  0  0  0
  5  8  1  0  0  0  0
  7  9  2  0  0  0  0
  8 10  1  0  0  0  0
  9 11  1  0  0  0  0
  9 12  1  0  0  0  0
 11 13  1  1  0  0  0
 11 14  1  0  0  0  0
 12 15  1  0  0  0  0
 13 16  2  0  0  0  0
 13 17  1  0  0  0  0
 14 18  1  0  0  0  0
 15 19  1  1  0  0  0
 16 20  1  0  0  0  0
 17 21  2  0  0  0  0
 18 22  1  0  0  0  0
 18 23  1  1  0  0  0
 19 24  1  0  0  0  0
 20 25  2  0  0  0  0
 22 26  1  1  0  0  0
 22 27  1  0  0  0  0
 25 28  1  0  0  0  0
 27 29  3  0  0  0  0
 28 30  1  0  0  0  0
 28 31  1  0  0  0  0
 30 32  2  0  0  0  0
 30 33  1  0  0  0  0
 33 34  1  0  0  0  0
 34 35  1  0  0  0  0
 35 36  2  0  0  0  0
 35 37  1  0  0  0  0
 37 38  1  0  0  0  0
 38 39  1  0  0  0  0
 38 40  1  0  0  0  0
 41 39  1  6  0  0  0
 40 42  1  0  0  0  0
 41 43  1  0  0  0  0
 41 44  1  0  0  0  0
 43 45  1  0  0  0  0
 43 46  1  1  0  0  0
 44 47  1  0  0  0  0
 48 45  1  6  0  0  0
 45 49  1  1  0  0  0
 47 50  1  6  0  0  0
 48 51  1  0  0  0  0
 49 52  1  0  0  0  0
 51 53  1  0  0  0  0
 51 54  1  1  0  0  0
 52 55  1  6  0  0  0
 53 56  1  0  0  0  0
 53 57  1  1  0  0  0
 54 58  1  0  0  0  0
 56 59  1  0  0  0  0
 59 60  1  0  0  0  0
 59 61  1  6  0  0  0
 60 62  1  0  0  0  0
 62 63  1  0  0  0  0
 63 64  2  0  0  0  0
 63 65  1  0  0  0  0
  6  7  1  0  0  0  0
 12 10  1  6  0  0  0
 15 18  1  0  0  0  0
 21 25  1  0  0  0  0
 22 24  1  0  0  0  0
 42 43  1  0  0  0  0
 47 48  1  0  0  0  0
 52 53  1  0  0  0  0
 56 58  1  1  0  0  0
M  END
>  <MolRegNo>
312089

>  <m>
=

>  <Value>
21

>  <Unit>
nM

>  <Type>
Ki

>  <pValue>
7.68

>  <Ligand Efficiency>
0.16

>  <Binding Efficiency>
8.6

>  <Surface Efficiency>
4.42

>  <Assay Index>
235287

>  <Assay Category>


>  <Assay Organism>
Homo sapiens

>  <Target ID>
56

>  <Target Name>
Androgen Receptor

>  <Target Organism>
Homo sapiens

>  <Target Description>
Target is a single protein chain

>  <Sequence Accession>
P10275

>  <Reference>
J Med Chem 47 (17), 4213-4230 (2004)

>  <Pubmed ID>
15293993

>  <DOI>
10.1021/jm0400045

$$$$
312157
Actelion Java MolfileCreator 1.0

 64 72  0  0  1  0  0  0  0  0999 V2000
    0.0000   -0.0000   -0.0000 O   0  0  0  0  0  0  0  0  0  0  0  0
    1.3058    0.7640   -0.0000 C   0  0  0  0  0  0  0  0  0  0  0  0
    2.5977    0.0139   -0.0000 C   0  0  0  0  0  0  0  0  0  0  0  0
    1.2919    2.2921   -0.0000 C   0  0  0  0  0  0  0  0  0  0  0  0
    3.8757    0.7918   -0.0000 C   0  0  0  0  0  0  0  0  0  0  0  0
    2.5838    3.0561   -0.0000 C   0  0  0  0  0  0  0  0  0  0  0  0
    3.8618    2.3199   -0.0000 C   0  0  0  0  0  0  0  0  0  0  0  0
    5.1537    0.0417   -0.0000 C   0  0  0  0  0  0  0  0  0  0  0  0
    5.1398    3.0561   -0.0000 C   0  0  0  0  0  0  0  0  0  0  0  0
    6.4595    0.8196   -0.0000 C   0  0  0  0  0  0  0  0  0  0  0  0
    5.1259    4.5842   -0.0000 C   0  0  0  0  0  0  0  0  0  0  0  0
    6.4317    2.3199   -0.0000 C   0  0  0  0  0  0  0  0  0  0  0  0
    4.2369    5.0843   -0.0000 C   0  0  0  0  0  0  0  0  0  0  0  0
    6.4179    5.3621   -0.0000 C   0  0  0  0  0  0  0  0  0  0  0  0
    7.7098    3.0978   -0.0000 C   0  0  0  0  0  0  0  0  0  0  0  0
    4.0007    6.5707   -0.0000 C   0  0  0  0  0  0  0  0  0  0  0  0
    3.0422    4.1397   -0.0000 C   0  0  0  0  0  0  0  0  0  0  0  0
    7.6959    4.6120   -0.0000 C   0  0  0  0  0  0  0  0  0  0  0  0
    9.1267    2.6394   -0.0000 C   0  0  0  0  0  0  0  0  0  0  0  0
    2.5699    7.1541   -0.0000 C   0  0  0  0  0  0  0  0  0  0  0  0
    1.6253    4.7092   -0.0000 C   0  0  0  0  0  0  0  0  0  0  0  0
    9.1128    5.0843   -0.0000 C   0  0  0  0  0  0  0  0  0  0  0  0
    7.7098    6.2512   -0.0000 C   0  0  0  0  0  0  0  0  0  0  0  0
   10.0019    3.8896   -0.0000 C   0  0  0  0  0  0  0  0  0  0  0  0
    1.3753    6.2095   -0.0000 C   0  0  0  0  0  0  0  0  0  0  0  0
    9.0989    6.6957   -0.0000 O   0  0  0  0  0  0  0  0  0  0  0  0
   10.3908    5.8761   -0.0000 C   0  0  0  0  0  0  0  0  0  0  0  0
    0.0417    6.9874   -0.0000 N   0  0  0  0  0  0  0  0  0  0  0  0
   11.6827    6.6679   -0.0000 C   0  0  0  0  0  0  0  0  0  0  0  0
    0.0695    8.7655   -0.0000 C   0  0  0  0  0  0  0  0  0  0  0  0
   -1.2780    6.2650   -0.0000 C   0  0  0  0  0  0  0  0  0  0  0  0
    1.1252    9.8490   -0.0000 C   0  0  0  0  0  0  0  0  0  0  0  0
    1.1113   11.3771   -0.0000 N   0  0  0  0  0  0  0  0  0  0  0  0
   -0.2223   12.1411   -0.0000 C   0  0  0  0  0  0  0  0  0  0  0  0
   -1.7364   12.1828   -0.0000 O   0  0  0  0  0  0  0  0  0  0  0  0
   -0.2223   13.6692   -0.0000 O   0  0  0  0  0  0  0  0  0  0  0  0
    1.0696   14.4332   -0.0000 C   0  0  0  0  0  0  0  0  0  0  0  0
    2.3477   13.6970   -0.0000 C   0  0  0  0  0  0  0  0  0  0  0  0
    1.0558   15.9613   -0.0000 C   0  0  0  0  0  0  0  0  0  0  0  0
    3.6257   14.4610   -0.0000 C   0  0  0  0  0  0  0  0  0  0  0  0
    2.3338   16.7392   -0.0000 C   0  0  0  0  0  0  0  0  0  0  0  0
    3.6257   15.9891   -0.0000 C   0  0  0  0  0  0  0  0  0  0  0  0
    4.9315   13.7248   -0.0000 C   0  0  0  0  0  0  0  0  0  0  0  0
    4.9176   16.7670   -0.0000 C   0  0  0  0  0  0  0  0  0  0  0  0
    3.5979   17.5032   -0.0000 C   0  0  0  0  0  0  0  0  0  0  0  0
    6.2234   14.4888   -0.0000 C   0  0  0  0  0  0  0  0  0  0  0  0
    6.1956   16.0030   -0.0000 C   0  0  0  0  0  0  0  0  0  0  0  0
    4.9037   18.2812   -0.0000 C   0  0  0  0  0  0  0  0  0  0  0  0
    7.2791   13.4330   -0.0000 O   0  0  0  0  0  0  0  0  0  0  0  0
    7.5014   16.7670   -0.0000 C   0  0  0  0  0  0  0  0  0  0  0  0
    6.2373   19.0591   -0.0000 C   0  0  0  0  0  0  0  0  0  0  0  0
    7.5153   18.2951   -0.0000 C   0  0  0  0  0  0  0  0  0  0  0  0
    8.9183   16.2669   -0.0000 C   0  0  0  0  0  0  0  0  0  0  0  0
    6.2234   20.5038   -0.0000 O   0  0  0  0  0  0  0  0  0  0  0  0
    8.9322   18.7257   -0.0000 C   0  0  0  0  0  0  0  0  0  0  0  0
    7.5153   19.4897   -0.0000 C   0  0  0  0  0  0  0  0  0  0  0  0
    9.6962   17.4338   -0.0000 C   0  0  0  0  0  0  0  0  0  0  0  0
    8.9461   20.3510   -0.0000 C   0  0  0  0  0  0  0  0  0  0  0  0
   10.2519   21.1428   -0.0000 C   0  0  0  0  0  0  0  0  0  0  0  0
    7.8348   21.0317   -0.0000 C   0  0  0  0  0  0  0  0  0  0  0  0
   11.5299   20.4066   -0.0000 C   0  0  0  0  0  0  0  0  0  0  0  0
   12.8218   21.1706   -0.0000 C   0  0  0  0  0  0  0  0  0  0  0  0
   12.7940   22.7125   -0.0000 O   0  0  0  0  0  0  0  0  0  0  0  0
   14.0998   20.4343   -0.0000 O   0  0  0  0  0  0  0  0  0  0  0  0
  1  2  2  0  0  0  0
  2  3  1  0  0  0  0
  2  4  1  0  0  0  0
  3  5  2  0  0  0  0
  4  6  1  0  0  0  0
  5  7  1  0  0  0  0
  5  8  1  0  0  0  0
  7  9  2  0  0  0  0
  8 10  1  0  0  0  0
  9 11  1  0  0  0  0
  9 12  1  0  0  0  0
 11 13  1  1  0  0  0
 11 14  1  0  0  0  0
 12 15  1  0  0  0  0
 13 16  2  0  0  0  0
 13 17  1  0  0  0  0
 14 18  1  0  0  0  0
 15 19  1  1  0  0  0
 16 20  1  0  0  0  0
 17 21  2  0  0  0  0
 18 22  1  0  0  0  0
 18 23  1  1  0  0  0
 19 24  1  0  0  0  0
 20 25  2  0  0  0  0
 22 26  1  1  0  0  0
 22 27  1  0  0  0  0
 25 28  1  0  0  0  0
 27 29  3  0  0  0  0
 28 30  1  0  0  0  0
 28 31  1  0  0  0  0
 30 32  1  0  0  0  0
 32 33  1  0  0  0  0
 33 34  1  0  0  0  0
 34 35  2  0  0  0  0
 34 36  1  0  0  0  0
 36 37  1  0  0  0  0
 37 38  1  0  0  0  0
 37 39  1  0  0  0  0
 40 38  1  6  0  0  0
 39 41  1  0  0  0  0
 40 42  1  0  0  0  0
 40 43  1  0  0  0  0
 42 44  1  0  0  0  0
 42 45  1  1  0  0  0
 43 46  1  0  0  0  0
 47 44  1  6  0  0  0
 44 48  1  1  0  0  0
 46 49  1  6  0  0  0
 47 50  1  0  0  0  0
 48 51  1  0  0  0  0
 50 52  1  0  0  0  0
 50 53  1  1  0  0  0
 51 54  1  6  0  0  0
 52 55  1  0  0  0  0
 52 56  1  1  0  0  0
 53 57  1  0  0  0  0
 55 58  1  0  0  0  0
 58 59  1  0  0  0  0
 58 60  1  6  0  0  0
 59 61  1  0  0  0  0
 61 62  1  0  0  0  0
 62 63  2  0  0  0  0
 62 64  1  0  0  0  0
  6  7  1  0  0  0  0
 12 10  1  6  0  0  0
 15 18  1  0  0  0  0
 21 25  1  0  0  0  0
 22 24  1  0  0  0  0
 41 42  1  0  0  0  0
 46 47  1  0  0  0  0
 51 52  1  0  0  0  0
 55 57  1  1  0  0  0
M  END
>  <MolRegNo>
312157

>  <m>
=

>  <Value>
6.2

>  <Unit>
nM

>  <Type>
Ki

>  <pValue>
8.21

>  <Ligand Efficiency>
0.18

>  <Binding Efficiency>
9.34

>  <Surface Efficiency>
5.24

>  <Assay Index>
235287

>  <Assay Category>


>  <Assay Organism>
Homo sapiens

>  <Target ID>
56

>  <Target Name>
Androgen Receptor

>  <Target Organism>
Homo sapiens

>  <Target Description>
Target is a single protein chain

>  <Sequence Accession>
P10275

>  <Reference>
J Med Chem 47 (17), 4213-4230 (2004)

>  <Pubmed ID>
15293993

>  <DOI>
10.1021/jm0400045

$$$$
312117
Actelion Java MolfileCreator 1.0

 61 69  0  0  1  0  0  0  0  0999 V2000
    0.0000   -0.0000   -0.0000 O   0  0  0  0  0  0  0  0  0  0  0  0
    1.3121    0.7590   -0.0000 C   0  0  0  0  0  0  0  0  0  0  0  0
    2.5985    0.0129   -0.0000 C   0  0  0  0  0  0  0  0  0  0  0  0
    1.3121    2.3155   -0.0000 C   0  0  0  0  0  0  0  0  0  0  0  0
    3.8977    0.7847   -0.0000 C   0  0  0  0  0  0  0  0  0  0  0  0
    2.5985    3.0487   -0.0000 C   0  0  0  0  0  0  0  0  0  0  0  0
    3.8848    2.3155   -0.0000 C   0  0  0  0  0  0  0  0  0  0  0  0
    5.1841    0.0515   -0.0000 C   0  0  0  0  0  0  0  0  0  0  0  0
    5.1712    3.0744   -0.0000 C   0  0  0  0  0  0  0  0  0  0  0  0
    6.4962    0.8104   -0.0000 C   0  0  0  0  0  0  0  0  0  0  0  0
    5.1584    4.5924   -0.0000 C   0  0  0  0  0  0  0  0  0  0  0  0
    6.4576    2.3155   -0.0000 C   0  0  0  0  0  0  0  0  0  0  0  0
    4.2579    5.0812   -0.0000 C   0  0  0  0  0  0  0  0  0  0  0  0
    6.4447    5.3642   -0.0000 C   0  0  0  0  0  0  0  0  0  0  0  0
    7.7568    3.1002   -0.0000 C   0  0  0  0  0  0  0  0  0  0  0  0
    3.0616    4.1421   -0.0000 C   0  0  0  0  0  0  0  0  0  0  0  0
    4.0135    6.5862   -0.0000 C   0  0  0  0  0  0  0  0  0  0  0  0
    7.7440    4.6181   -0.0000 C   0  0  0  0  0  0  0  0  0  0  0  0
    9.1976    2.6499   -0.0000 C   0  0  0  0  0  0  0  0  0  0  0  0
    1.6466    4.7081   -0.0000 C   0  0  0  0  0  0  0  0  0  0  0  0
    2.5985    7.1522   -0.0000 C   0  0  0  0  0  0  0  0  0  0  0  0
    9.1847    5.0940   -0.0000 C   0  0  0  0  0  0  0  0  0  0  0  0
    7.7568    6.2646   -0.0000 C   0  0  0  0  0  0  0  0  0  0  0  0
   10.0594    3.8720   -0.0000 C   0  0  0  0  0  0  0  0  0  0  0  0
    1.4021    6.2389   -0.0000 C   0  0  0  0  0  0  0  0  0  0  0  0
    9.1461    6.7149   -0.0000 O   0  0  0  0  0  0  0  0  0  0  0  0
   10.4711    5.8787   -0.0000 C   0  0  0  0  0  0  0  0  0  0  0  0
    0.0772    7.0107   -0.0000 N   0  0  0  0  0  0  0  0  0  0  0  0
   11.7575    6.6634   -0.0000 C   0  0  0  0  0  0  0  0  0  0  0  0
    0.0772    8.5415   -0.0000 C   0  0  0  0  0  0  0  0  0  0  0  0
   -1.2606    6.2646   -0.0000 C   0  0  0  0  0  0  0  0  0  0  0  0
    1.3636    9.3005   -0.0000 C   0  0  0  0  0  0  0  0  0  0  0  0
    1.3507   10.8313   -0.0000 O   0  0  0  0  0  0  0  0  0  0  0  0
    2.6628   11.5902   -0.0000 C   0  0  0  0  0  0  0  0  0  0  0  0
    3.9492   10.8570   -0.0000 C   0  0  0  0  0  0  0  0  0  0  0  0
    2.6499   13.1210   -0.0000 C   0  0  0  0  0  0  0  0  0  0  0  0
    5.2484   11.6160   -0.0000 C   0  0  0  0  0  0  0  0  0  0  0  0
    3.9363   13.9057   -0.0000 C   0  0  0  0  0  0  0  0  0  0  0  0
    5.2355   13.1467   -0.0000 C   0  0  0  0  0  0  0  0  0  0  0  0
    6.5605   10.8699   -0.0000 C   0  0  0  0  0  0  0  0  0  0  0  0
    6.5476   13.9186   -0.0000 C   0  0  0  0  0  0  0  0  0  0  0  0
    5.2227   14.6775   -0.0000 C   0  0  0  0  0  0  0  0  0  0  0  0
    7.8597   11.6417   -0.0000 C   0  0  0  0  0  0  0  0  0  0  0  0
    7.8469   13.1725   -0.0000 C   0  0  0  0  0  0  0  0  0  0  0  0
    6.5476   15.4622   -0.0000 C   0  0  0  0  0  0  0  0  0  0  0  0
    8.9274   10.5740   -0.0000 O   0  0  0  0  0  0  0  0  0  0  0  0
    9.1333   13.9057   -0.0000 C   0  0  0  0  0  0  0  0  0  0  0  0
    7.8726   16.2212   -0.0000 C   0  0  0  0  0  0  0  0  0  0  0  0
    9.1718   15.4365   -0.0000 C   0  0  0  0  0  0  0  0  0  0  0  0
   10.5740   13.4555   -0.0000 C   0  0  0  0  0  0  0  0  0  0  0  0
    7.8597   17.6490   -0.0000 O   0  0  0  0  0  0  0  0  0  0  0  0
   10.6126   15.9124   -0.0000 C   0  0  0  0  0  0  0  0  0  0  0  0
    9.1847   16.6585   -0.0000 C   0  0  0  0  0  0  0  0  0  0  0  0
   11.3330   14.6003   -0.0000 C   0  0  0  0  0  0  0  0  0  0  0  0
   10.5997   17.5590   -0.0000 C   0  0  0  0  0  0  0  0  0  0  0  0
   11.8861   18.3308   -0.0000 C   0  0  0  0  0  0  0  0  0  0  0  0
    9.5063   18.2279   -0.0000 C   0  0  0  0  0  0  0  0  0  0  0  0
   13.1982   17.5847   -0.0000 C   0  0  0  0  0  0  0  0  0  0  0  0
   14.4846   18.3565   -0.0000 C   0  0  0  0  0  0  0  0  0  0  0  0
   14.4717   19.8873   -0.0000 O   0  0  0  0  0  0  0  0  0  0  0  0
   15.7838   17.6233   -0.0000 O   0  0  0  0  0  0  0  0  0  0  0  0
  1  2  2  0  0  0  0
  2  3  1  0  0  0  0
  2  4  1  0  0  0  0
  3  5  2  0  0  0  0
  4  6  1  0  0  0  0
  5  7  1  0  0  0  0
  5  8  1  0  0  0  0
  7  9  2  0  0  0  0
  8 10  1  0  0  0  0
  9 11  1  0  0  0  0
  9 12  1  0  0  0  0
 11 13  1  1  0  0  0
 11 14  1  0  0  0  0
 12 15  1  0  0  0  0
 13 16  2  0  0  0  0
 13 17  1  0  0  0  0
 14 18  1  0  0  0  0
 15 19  1  1  0  0  0
 16 20  1  0  0  0  0
 17 21  2  0  0  0  0
 18 22  1  0  0  0  0
 18 23  1  1  0  0  0
 19 24  1  0  0  0  0
 20 25  2  0  0  0  0
 22 26  1  1  0  0  0
 22 27  1  0  0  0  0
 25 28  1  0  0  0  0
 27 29  3  0  0  0  0
 28 30  1  0  0  0  0
 28 31  1  0  0  0  0
 30 32  1  0  0  0  0
 32 33  1  0  0  0  0
 33 34  1  0  0  0  0
 34 35  1  0  0  0  0
 34 36  1  0  0  0  0
 37 35  1  6  0  0  0
 36 38  1  0  0  0  0
 37 39  1  0  0  0  0
 37 40  1  0  0  0  0
 39 41  1  0  0  0  0
 39 42  1  1  0  0  0
 40 43  1  0  0  0  0
 44 41  1  6  0  0  0
 41 45  1  1  0  0  0
 43 46  1  6  0  0  0
 44 47  1  0  0  0  0
 45 48  1  0  0  0  0
 47 49  1  0  0  0  0
 47 50  1  1  0  0  0
 48 51  1  6  0  0  0
 49 52  1  0  0  0  0
 49 53  1  1  0  0  0
 50 54  1  0  0  0  0
 52 55  1  0  0  0  0
 55 56  1  0  0  0  0
 55 57  1  6  0  0  0
 56 58  1  0  0  0  0
 58 59  1  0  0  0  0
 59 60  2  0  0  0  0
 59 61  1  0  0  0  0
  6  7  1  0  0  0  0
 12 10  1  6  0  0  0
 15 18  1  0  0  0  0
 21 25  1  0  0  0  0
 22 24  1  0  0  0  0
 38 39  1  0  0  0  0
 43 44  1  0  0  0  0
 48 49  1  0  0  0  0
 52 54  1  1  0  0  0
M  END
>  <MolRegNo>
312117

>  <m>
=

>  <Value>
8.9

>  <Unit>
nM

>  <Type>
Ki

>  <pValue>
8.05

>  <Ligand Efficiency>
0.18

>  <Binding Efficiency>
9.63

>  <Surface Efficiency>
6.31

>  <Assay Index>
235287

>  <Assay Category>


>  <Assay Organism>
Homo sapiens

>  <Target ID>
56

>  <Target Name>
Androgen Receptor

>  <Target Organism>
Homo sapiens

>  <Target Description>
Target is a single protein chain

>  <Sequence Accession>
P10275

>  <Reference>
J Med Chem 47 (17), 4213-4230 (2004)

>  <Pubmed ID>
15293993

>  <DOI>
10.1021/jm0400045

$$$$
312118
Actelion Java MolfileCreator 1.0

 65 73  0  0  1  0  0  0  0  0999 V2000
    0.0000   -0.0000   -0.0000 O   0  0  0  0  0  0  0  0  0  0  0  0
    1.3116    0.7715   -0.0000 C   0  0  0  0  0  0  0  0  0  0  0  0
    2.6103    0.0129   -0.0000 C   0  0  0  0  0  0  0  0  0  0  0  0
    1.3116    2.2888   -0.0000 C   0  0  0  0  0  0  0  0  0  0  0  0
    3.8961    0.7972   -0.0000 C   0  0  0  0  0  0  0  0  0  0  0  0
    2.5974    3.0346   -0.0000 C   0  0  0  0  0  0  0  0  0  0  0  0
    3.8833    2.3145   -0.0000 C   0  0  0  0  0  0  0  0  0  0  0  0
    5.1948    0.0386   -0.0000 C   0  0  0  0  0  0  0  0  0  0  0  0
    5.1820    3.0603   -0.0000 C   0  0  0  0  0  0  0  0  0  0  0  0
    6.4807    0.8229   -0.0000 C   0  0  0  0  0  0  0  0  0  0  0  0
    5.1691    4.5776   -0.0000 C   0  0  0  0  0  0  0  0  0  0  0  0
    6.4550    2.3145   -0.0000 C   0  0  0  0  0  0  0  0  0  0  0  0
    4.2690    5.0791   -0.0000 C   0  0  0  0  0  0  0  0  0  0  0  0
    6.4421    5.3620   -0.0000 C   0  0  0  0  0  0  0  0  0  0  0  0
    7.7408    3.0860   -0.0000 C   0  0  0  0  0  0  0  0  0  0  0  0
    4.0247    6.5964   -0.0000 C   0  0  0  0  0  0  0  0  0  0  0  0
    3.0860    4.1404   -0.0000 C   0  0  0  0  0  0  0  0  0  0  0  0
    7.7280    4.6033   -0.0000 C   0  0  0  0  0  0  0  0  0  0  0  0
    9.1681    2.6360   -0.0000 C   0  0  0  0  0  0  0  0  0  0  0  0
    2.5974    7.1622   -0.0000 C   0  0  0  0  0  0  0  0  0  0  0  0
    1.6459    4.7062   -0.0000 C   0  0  0  0  0  0  0  0  0  0  0  0
    9.1553    5.0920   -0.0000 C   0  0  0  0  0  0  0  0  0  0  0  0
    7.7408    6.2492   -0.0000 C   0  0  0  0  0  0  0  0  0  0  0  0
   10.0425    3.8833   -0.0000 C   0  0  0  0  0  0  0  0  0  0  0  0
    1.4144    6.2364   -0.0000 C   0  0  0  0  0  0  0  0  0  0  0  0
    9.1167    6.6993   -0.0000 O   0  0  0  0  0  0  0  0  0  0  0  0
   10.4411    5.8892   -0.0000 C   0  0  0  0  0  0  0  0  0  0  0  0
    0.0772    7.0079   -0.0000 N   0  0  0  0  0  0  0  0  0  0  0  0
   11.7270    6.6736   -0.0000 C   0  0  0  0  0  0  0  0  0  0  0  0
    0.0643    8.5509   -0.0000 C   0  0  0  0  0  0  0  0  0  0  0  0
   -0.7715    5.7606   -0.0000 C   0  0  0  0  0  0  0  0  0  0  0  0
   -1.2473    9.3224   -0.0000 C   0  0  0  0  0  0  0  0  0  0  0  0
   -1.2601   10.8397   -0.0000 C   0  0  0  0  0  0  0  0  0  0  0  0
   -2.6103   11.6112   -0.0000 C   0  0  0  0  0  0  0  0  0  0  0  0
   -3.9218   10.8654   -0.0000 O   0  0  0  0  0  0  0  0  0  0  0  0
   -2.6231   13.1285   -0.0000 N   0  0  0  0  0  0  0  0  0  0  0  0
   -1.2987   13.9129   -0.0000 C   0  0  0  0  0  0  0  0  0  0  0  0
   -3.9347   13.9258   -0.0000 C   0  0  0  0  0  0  0  0  0  0  0  0
   -0.0129   13.1543   -0.0000 C   0  0  0  0  0  0  0  0  0  0  0  0
   -1.3116   15.4302   -0.0000 C   0  0  0  0  0  0  0  0  0  0  0  0
    1.2859   13.9386   -0.0000 C   0  0  0  0  0  0  0  0  0  0  0  0
   -0.0257   16.2017   -0.0000 C   0  0  0  0  0  0  0  0  0  0  0  0
    1.2730   15.4559   -0.0000 C   0  0  0  0  0  0  0  0  0  0  0  0
    2.5717   13.1800   -0.0000 C   0  0  0  0  0  0  0  0  0  0  0  0
    2.5588   16.2274   -0.0000 C   0  0  0  0  0  0  0  0  0  0  0  0
    1.2601   16.9732   -0.0000 C   0  0  0  0  0  0  0  0  0  0  0  0
    3.8704   13.9386   -0.0000 C   0  0  0  0  0  0  0  0  0  0  0  0
    3.8576   15.4559   -0.0000 C   0  0  0  0  0  0  0  0  0  0  0  0
    2.5460   17.7447   -0.0000 C   0  0  0  0  0  0  0  0  0  0  0  0
    4.9377   12.8842   -0.0000 O   0  0  0  0  0  0  0  0  0  0  0  0
    5.1434   16.2274   -0.0000 C   0  0  0  0  0  0  0  0  0  0  0  0
    3.8833   18.4905   -0.0000 C   0  0  0  0  0  0  0  0  0  0  0  0
    5.1820   17.7447   -0.0000 C   0  0  0  0  0  0  0  0  0  0  0  0
    6.5836   15.7260   -0.0000 C   0  0  0  0  0  0  0  0  0  0  0  0
    3.8704   19.9693   -0.0000 O   0  0  0  0  0  0  0  0  0  0  0  0
    6.6093   18.1948   -0.0000 C   0  0  0  0  0  0  0  0  0  0  0  0
    5.1820   18.9406   -0.0000 C   0  0  0  0  0  0  0  0  0  0  0  0
    7.3551   16.8961   -0.0000 C   0  0  0  0  0  0  0  0  0  0  0  0
    6.6093   19.8278   -0.0000 C   0  0  0  0  0  0  0  0  0  0  0  0
    7.9080   20.5993   -0.0000 C   0  0  0  0  0  0  0  0  0  0  0  0
    5.5163   20.4836   -0.0000 C   0  0  0  0  0  0  0  0  0  0  0  0
    9.1938   19.8793   -0.0000 C   0  0  0  0  0  0  0  0  0  0  0  0
   10.4925   20.6251   -0.0000 C   0  0  0  0  0  0  0  0  0  0  0  0
   10.4668   22.1938   -0.0000 O   0  0  0  0  0  0  0  0  0  0  0  0
   11.7784   19.9050   -0.0000 O   0  0  0  0  0  0  0  0  0  0  0  0
  1  2  2  0  0  0  0
  2  3  1  0  0  0  0
  2  4  1  0  0  0  0
  3  5  2  0  0  0  0
  4  6  1  0  0  0  0
  5  7  1  0  0  0  0
  5  8  1  0  0  0  0
  7  9  2  0  0  0  0
  8 10  1  0  0  0  0
  9 11  1  0  0  0  0
  9 12  1  0  0  0  0
 11 13  1  1  0  0  0
 11 14  1  0  0  0  0
 12 15  1  0  0  0  0
 13 16  2  0  0  0  0
 13 17  1  0  0  0  0
 14 18  1  0  0  0  0
 15 19  1  1  0  0  0
 16 20  1  0  0  0  0
 17 21  2  0  0  0  0
 18 22  1  0  0  0  0
 18 23  1  1  0  0  0
 19 24  1  0  0  0  0
 20 25  2  0  0  0  0
 22 26  1  1  0  0  0
 22 27  1  0  0  0  0
 25 28  1  0  0  0  0
 27 29  3  0  0  0  0
 28 30  1  0  0  0  0
 28 31  1  0  0  0  0
 30 32  1  0  0  0  0
 32 33  1  0  0  0  0
 33 34  1  0  0  0  0
 34 35  2  0  0  0  0
 34 36  1  0  0  0  0
 36 37  1  0  0  0  0
 36 38  1  0  0  0  0
 37 39  1  0  0  0  0
 37 40  1  0  0  0  0
 41 39  1  6  0  0  0
 40 42  1  0  0  0  0
 41 43  1  0  0  0  0
 41 44  1  0  0  0  0
 43 45  1  0  0  0  0
 43 46  1  1  0  0  0
 44 47  1  0  0  0  0
 48 45  1  6  0  0  0
 45 49  1  1  0  0  0
 47 50  1  6  0  0  0
 48 51  1  0  0  0  0
 49 52  1  0  0  0  0
 51 53  1  0  0  0  0
 51 54  1  1  0  0  0
 52 55  1  6  0  0  0
 53 56  1  0  0  0  0
 53 57  1  1  0  0  0
 54 58  1  0  0  0  0
 56 59  1  0  0  0  0
 59 60  1  0  0  0  0
 59 61  1  6  0  0  0
 60 62  1  0  0  0  0
 62 63  1  0  0  0  0
 63 64  2  0  0  0  0
 63 65  1  0  0  0  0
  6  7  1  0  0  0  0
 12 10  1  6  0  0  0
 15 18  1  0  0  0  0
 21 25  1  0  0  0  0
 22 24  1  0  0  0  0
 42 43  1  0  0  0  0
 47 48  1  0  0  0  0
 52 53  1  0  0  0  0
 56 58  1  1  0  0  0
M  END
>  <MolRegNo>
312118

>  <m>
=

>  <Value>
7.4

>  <Unit>
nM

>  <Type>
Ki

>  <pValue>
8.13

>  <Ligand Efficiency>
0.17

>  <Binding Efficiency>
9.12

>  <Surface Efficiency>
5.87

>  <Assay Index>
235287

>  <Assay Category>


>  <Assay Organism>
Homo sapiens

>  <Target ID>
56

>  <Target Name>
Androgen Receptor

>  <Target Organism>
Homo sapiens

>  <Target Description>
Target is a single protein chain

>  <Sequence Accession>
P10275

>  <Reference>
J Med Chem 47 (17), 4213-4230 (2004)

>  <Pubmed ID>
15293993

>  <DOI>
10.1021/jm0400045

$$$$
312119
Actelion Java MolfileCreator 1.0

 65 73  0  0  1  0  0  0  0  0999 V2000
    0.0000   -0.0000   -0.0000 O   0  0  0  0  0  0  0  0  0  0  0  0
    1.2896    0.7569   -0.0000 C   0  0  0  0  0  0  0  0  0  0  0  0
    2.5792    0.0140   -0.0000 C   0  0  0  0  0  0  0  0  0  0  0  0
    1.2896    2.2848   -0.0000 C   0  0  0  0  0  0  0  0  0  0  0  0
    3.8688    0.7850   -0.0000 C   0  0  0  0  0  0  0  0  0  0  0  0
    2.5792    3.0418   -0.0000 C   0  0  0  0  0  0  0  0  0  0  0  0
    3.8548    2.2988   -0.0000 C   0  0  0  0  0  0  0  0  0  0  0  0
    5.1724    0.0561   -0.0000 C   0  0  0  0  0  0  0  0  0  0  0  0
    5.1303    3.0698   -0.0000 C   0  0  0  0  0  0  0  0  0  0  0  0
    6.4480    0.8130   -0.0000 C   0  0  0  0  0  0  0  0  0  0  0  0
    5.1163    4.5696   -0.0000 C   0  0  0  0  0  0  0  0  0  0  0  0
    6.4199    2.3129   -0.0000 C   0  0  0  0  0  0  0  0  0  0  0  0
    4.2192    5.0602   -0.0000 C   0  0  0  0  0  0  0  0  0  0  0  0
    6.4059    5.3546   -0.0000 C   0  0  0  0  0  0  0  0  0  0  0  0
    7.7095    3.0978   -0.0000 C   0  0  0  0  0  0  0  0  0  0  0  0
    3.9809    6.5461   -0.0000 C   0  0  0  0  0  0  0  0  0  0  0  0
    3.0277    4.1211   -0.0000 C   0  0  0  0  0  0  0  0  0  0  0  0
    7.6955    4.5977   -0.0000 C   0  0  0  0  0  0  0  0  0  0  0  0
    9.1253    2.6493   -0.0000 C   0  0  0  0  0  0  0  0  0  0  0  0
    2.5652    7.1208   -0.0000 C   0  0  0  0  0  0  0  0  0  0  0  0
    1.6120    4.6818   -0.0000 C   0  0  0  0  0  0  0  0  0  0  0  0
    9.1112    5.0743   -0.0000 C   0  0  0  0  0  0  0  0  0  0  0  0
    7.6955    6.2377   -0.0000 C   0  0  0  0  0  0  0  0  0  0  0  0
    9.9943    3.8828   -0.0000 C   0  0  0  0  0  0  0  0  0  0  0  0
    1.3737    6.1956   -0.0000 C   0  0  0  0  0  0  0  0  0  0  0  0
    9.0692    6.7003   -0.0000 O   0  0  0  0  0  0  0  0  0  0  0  0
   10.4008    5.8592   -0.0000 C   0  0  0  0  0  0  0  0  0  0  0  0
    0.0421    6.9666   -0.0000 N   0  0  0  0  0  0  0  0  0  0  0  0
   11.6904    6.6302   -0.0000 C   0  0  0  0  0  0  0  0  0  0  0  0
    0.0280    8.6206   -0.0000 C   0  0  0  0  0  0  0  0  0  0  0  0
   -1.2896    6.2517   -0.0000 C   0  0  0  0  0  0  0  0  0  0  0  0
   -1.7662    9.0972   -0.0000 C   0  0  0  0  0  0  0  0  0  0  0  0
   -1.7802   10.6111   -0.0000 N   0  0  0  0  0  0  0  0  0  0  0  0
   -0.4766   11.3680   -0.0000 C   0  0  0  0  0  0  0  0  0  0  0  0
    0.8130   10.6251   -0.0000 O   0  0  0  0  0  0  0  0  0  0  0  0
   -0.4766   12.8819   -0.0000 N   0  0  0  0  0  0  0  0  0  0  0  0
    0.8130   13.6528   -0.0000 C   0  0  0  0  0  0  0  0  0  0  0  0
   -1.8082   13.6669   -0.0000 C   0  0  0  0  0  0  0  0  0  0  0  0
    2.1026   12.9099   -0.0000 C   0  0  0  0  0  0  0  0  0  0  0  0
    0.7990   15.1667   -0.0000 C   0  0  0  0  0  0  0  0  0  0  0  0
    3.3782   13.6809   -0.0000 C   0  0  0  0  0  0  0  0  0  0  0  0
    2.0886   15.9657   -0.0000 C   0  0  0  0  0  0  0  0  0  0  0  0
    3.3782   15.1948   -0.0000 C   0  0  0  0  0  0  0  0  0  0  0  0
    4.6678   12.9239   -0.0000 C   0  0  0  0  0  0  0  0  0  0  0  0
    4.6678   15.9657   -0.0000 C   0  0  0  0  0  0  0  0  0  0  0  0
    3.3501   16.7086   -0.0000 C   0  0  0  0  0  0  0  0  0  0  0  0
    5.9714   13.7089   -0.0000 C   0  0  0  0  0  0  0  0  0  0  0  0
    5.9574   15.2088   -0.0000 C   0  0  0  0  0  0  0  0  0  0  0  0
    4.6537   17.4656   -0.0000 C   0  0  0  0  0  0  0  0  0  0  0  0
    7.0086   12.6436   -0.0000 O   0  0  0  0  0  0  0  0  0  0  0  0
    7.2469   15.9657   -0.0000 C   0  0  0  0  0  0  0  0  0  0  0  0
    5.9714   18.2505   -0.0000 C   0  0  0  0  0  0  0  0  0  0  0  0
    7.2750   17.4796   -0.0000 C   0  0  0  0  0  0  0  0  0  0  0  0
    8.6627   15.4891   -0.0000 C   0  0  0  0  0  0  0  0  0  0  0  0
    5.9854   19.6803   -0.0000 O   0  0  0  0  0  0  0  0  0  0  0  0
    8.6907   17.9421   -0.0000 C   0  0  0  0  0  0  0  0  0  0  0  0
    7.2750   18.6851   -0.0000 C   0  0  0  0  0  0  0  0  0  0  0  0
    9.4336   16.6526   -0.0000 C   0  0  0  0  0  0  0  0  0  0  0  0
    8.6907   19.5822   -0.0000 C   0  0  0  0  0  0  0  0  0  0  0  0
    9.9803   20.3531   -0.0000 C   0  0  0  0  0  0  0  0  0  0  0  0
    7.5834   20.2410   -0.0000 C   0  0  0  0  0  0  0  0  0  0  0  0
   11.2699   19.6242   -0.0000 C   0  0  0  0  0  0  0  0  0  0  0  0
   12.5595   20.4092   -0.0000 C   0  0  0  0  0  0  0  0  0  0  0  0
   12.5455   21.9090   -0.0000 O   0  0  0  0  0  0  0  0  0  0  0  0
   13.8491   19.6803   -0.0000 O   0  0  0  0  0  0  0  0  0  0  0  0
  1  2  2  0  0  0  0
  2  3  1  0  0  0  0
  2  4  1  0  0  0  0
  3  5  2  0  0  0  0
  4  6  1  0  0  0  0
  5  7  1  0  0  0  0
  5  8  1  0  0  0  0
  7  9  2  0  0  0  0
  8 10  1  0  0  0  0
  9 11  1  0  0  0  0
  9 12  1  0  0  0  0
 11 13  1  1  0  0  0
 11 14  1  0  0  0  0
 12 15  1  0  0  0  0
 13 16  2  0  0  0  0
 13 17  1  0  0  0  0
 14 18  1  0  0  0  0
 15 19  1  1  0  0  0
 16 20  1  0  0  0  0
 17 21  2  0  0  0  0
 18 22  1  0  0  0  0
 18 23  1  1  0  0  0
 19 24  1  0  0  0  0
 20 25  2  0  0  0  0
 22 26  1  1  0  0  0
 22 27  1  0  0  0  0
 25 28  1  0  0  0  0
 27 29  3  0  0  0  0
 28 30  1  0  0  0  0
 28 31  1  0  0  0  0
 30 32  1  0  0  0  0
 32 33  1  0  0  0  0
 33 34  1  0  0  0  0
 34 35  2  0  0  0  0
 34 36  1  0  0  0  0
 36 37  1  0  0  0  0
 36 38  1  0  0  0  0
 37 39  1  0  0  0  0
 37 40  1  0  0  0  0
 41 39  1  6  0  0  0
 40 42  1  0  0  0  0
 41 43  1  0  0  0  0
 41 44  1  0  0  0  0
 43 45  1  0  0  0  0
 43 46  1  1  0  0  0
 44 47  1  0  0  0  0
 48 45  1  6  0  0  0
 45 49  1  1  0  0  0
 47 50  1  6  0  0  0
 48 51  1  0  0  0  0
 49 52  1  0  0  0  0
 51 53  1  0  0  0  0
 51 54  1  1  0  0  0
 52 55  1  6  0  0  0
 53 56  1  0  0  0  0
 53 57  1  1  0  0  0
 54 58  1  0  0  0  0
 56 59  1  0  0  0  0
 59 60  1  0  0  0  0
 59 61  1  6  0  0  0
 60 62  1  0  0  0  0
 62 63  1  0  0  0  0
 63 64  2  0  0  0  0
 63 65  1  0  0  0  0
  6  7  1  0  0  0  0
 12 10  1  6  0  0  0
 15 18  1  0  0  0  0
 21 25  1  0  0  0  0
 22 24  1  0  0  0  0
 42 43  1  0  0  0  0
 47 48  1  0  0  0  0
 52 53  1  0  0  0  0
 56 58  1  1  0  0  0
M  END
>  <MolRegNo>
312119

>  <m>
=

>  <Value>
16

>  <Unit>
nM

>  <Type>
Ki

>  <pValue>
7.8

>  <Ligand Efficiency>
0.16

>  <Binding Efficiency>
8.74

>  <Surface Efficiency>
5.18

>  <Assay Index>
235287

>  <Assay Category>


>  <Assay Organism>
Homo sapiens

>  <Target ID>
56

>  <Target Name>
Androgen Receptor

>  <Target Organism>
Homo sapiens

>  <Target Description>
Target is a single protein chain

>  <Sequence Accession>
P10275

>  <Reference>
J Med Chem 47 (17), 4213-4230 (2004)

>  <Pubmed ID>
15293993

>  <DOI>
10.1021/jm0400045

$$$$
312053
Actelion Java MolfileCreator 1.0

 66 74  0  0  1  0  0  0  0  0999 V2000
    0.0000   -0.0000   -0.0000 S   0  0  0  0  0  0  0  0  0  0  0  0
    1.2670   -0.7498   -0.0000 O   0  0  0  0  0  0  0  0  0  0  0  0
   -1.3316    0.7628   -0.0000 O   0  0  0  0  0  0  0  0  0  0  0  0
   -0.0129    1.5126   -0.0000 N   0  0  0  0  0  0  0  0  0  0  0  0
   -1.4351   -0.8016   -0.0000 C   0  0  0  0  0  0  0  0  0  0  0  0
    1.2799    2.2625   -0.0000 C   0  0  0  0  0  0  0  0  0  0  0  0
   -1.3446    2.2883   -0.0000 C   0  0  0  0  0  0  0  0  0  0  0  0
   -1.4480   -2.4305   -0.0000 C   0  0  0  0  0  0  0  0  0  0  0  0
    2.5598    1.5385   -0.0000 C   0  0  0  0  0  0  0  0  0  0  0  0
    1.2670    3.8139   -0.0000 C   0  0  0  0  0  0  0  0  0  0  0  0
   -2.8830   -3.2321   -0.0000 C   0  0  0  0  0  0  0  0  0  0  0  0
    3.8656    2.2883   -0.0000 C   0  0  0  0  0  0  0  0  0  0  0  0
    2.5469    4.5767   -0.0000 C   0  0  0  0  0  0  0  0  0  0  0  0
   -2.8960   -4.8611   -0.0000 N   0  0  0  0  0  0  0  0  0  0  0  0
    3.8527    3.8397   -0.0000 C   0  0  0  0  0  0  0  0  0  0  0  0
    5.1714    1.5385   -0.0000 C   0  0  0  0  0  0  0  0  0  0  0  0
   -1.5902   -5.6109   -0.0000 C   0  0  0  0  0  0  0  0  0  0  0  0
   -4.2276   -5.6109   -0.0000 C   0  0  0  0  0  0  0  0  0  0  0  0
    5.1584    4.5896   -0.0000 C   0  0  0  0  0  0  0  0  0  0  0  0
    3.8397    5.3524   -0.0000 C   0  0  0  0  0  0  0  0  0  0  0  0
    6.4642    2.3142   -0.0000 C   0  0  0  0  0  0  0  0  0  0  0  0
   -1.3833   -7.0977   -0.0000 C   0  0  0  0  0  0  0  0  0  0  0  0
   -0.4137   -4.6542   -0.0000 C   0  0  0  0  0  0  0  0  0  0  0  0
    6.4513    3.8397   -0.0000 C   0  0  0  0  0  0  0  0  0  0  0  0
    5.1584    6.1410   -0.0000 C   0  0  0  0  0  0  0  0  0  0  0  0
    7.4985    1.2541   -0.0000 O   0  0  0  0  0  0  0  0  0  0  0  0
    0.0259   -7.6278   -0.0000 C   0  0  0  0  0  0  0  0  0  0  0  0
    0.9696   -5.1843   -0.0000 C   0  0  0  0  0  0  0  0  0  0  0  0
    7.7312    4.5767   -0.0000 C   0  0  0  0  0  0  0  0  0  0  0  0
    6.4642    6.8908   -0.0000 C   0  0  0  0  0  0  0  0  0  0  0  0
    1.1894   -6.6581   -0.0000 C   0  0  0  0  0  0  0  0  0  0  0  0
    7.7700    6.0893   -0.0000 C   0  0  0  0  0  0  0  0  0  0  0  0
    9.1663    4.1242   -0.0000 C   0  0  0  0  0  0  0  0  0  0  0  0
    6.4513    8.3388   -0.0000 O   0  0  0  0  0  0  0  0  0  0  0  0
    2.0556   -7.1236   -0.0000 C   0  0  0  0  0  0  0  0  0  0  0  0
    9.2050    6.5676   -0.0000 C   0  0  0  0  0  0  0  0  0  0  0  0
    7.7829    7.3046   -0.0000 C   0  0  0  0  0  0  0  0  0  0  0  0
    9.9420    5.2619   -0.0000 C   0  0  0  0  0  0  0  0  0  0  0  0
    2.0427   -8.6103   -0.0000 C   0  0  0  0  0  0  0  0  0  0  0  0
    3.3485   -6.3479   -0.0000 C   0  0  0  0  0  0  0  0  0  0  0  0
    9.1921    8.2095   -0.0000 C   0  0  0  0  0  0  0  0  0  0  0  0
    0.7369   -9.3343   -0.0000 C   0  0  0  0  0  0  0  0  0  0  0  0
    3.3355   -9.3472   -0.0000 C   0  0  0  0  0  0  0  0  0  0  0  0
    4.6284   -7.0977   -0.0000 C   0  0  0  0  0  0  0  0  0  0  0  0
   10.4849    8.9594   -0.0000 C   0  0  0  0  0  0  0  0  0  0  0  0
    8.1061    8.8560   -0.0000 C   0  0  0  0  0  0  0  0  0  0  0  0
    0.7240  -10.8340   -0.0000 C   0  0  0  0  0  0  0  0  0  0  0  0
   -0.5818   -8.5845   -0.0000 C   0  0  0  0  0  0  0  0  0  0  0  0
    4.6154   -8.5845   -0.0000 C   0  0  0  0  0  0  0  0  0  0  0  0
    3.3355  -10.8340   -0.0000 C   0  0  0  0  0  0  0  0  0  0  0  0
    6.0634   -6.6194   -0.0000 C   0  0  0  0  0  0  0  0  0  0  0  0
    4.6413   -5.4558   -0.0000 C   0  0  0  0  0  0  0  0  0  0  0  0
   11.7649    8.2483   -0.0000 C   0  0  0  0  0  0  0  0  0  0  0  0
   -0.5947  -11.5839   -0.0000 C   0  0  0  0  0  0  0  0  0  0  0  0
    2.0298  -11.5580   -0.0000 C   0  0  0  0  0  0  0  0  0  0  0  0
   -1.8875   -9.2955   -0.0000 C   0  0  0  0  0  0  0  0  0  0  0  0
    6.0505   -9.0370   -0.0000 C   0  0  0  0  0  0  0  0  0  0  0  0
    6.0246   -5.0033   -0.0000 O   0  0  0  0  0  0  0  0  0  0  0  0
    7.3563   -5.8436   -0.0000 C   0  0  0  0  0  0  0  0  0  0  0  0
    6.9296   -7.8217   -0.0000 C   0  0  0  0  0  0  0  0  0  0  0  0
   13.0706    9.0111   -0.0000 C   0  0  0  0  0  0  0  0  0  0  0  0
   -1.9263  -10.8082   -0.0000 C   0  0  0  0  0  0  0  0  0  0  0  0
    8.6362   -5.0421   -0.0000 C   0  0  0  0  0  0  0  0  0  0  0  0
   13.0577   10.5237   -0.0000 O   0  0  0  0  0  0  0  0  0  0  0  0
   14.3764    8.2871   -0.0000 O   0  0  0  0  0  0  0  0  0  0  0  0
   -3.2321  -11.5322   -0.0000 O   0  0  0  0  0  0  0  0  0  0  0  0
  1  2  2  0  0  0  0
  1  3  2  0  0  0  0
  1  4  1  0  0  0  0
  1  5  1  0  0  0  0
  4  6  1  0  0  0  0
  4  7  1  0  0  0  0
  5  8  1  0  0  0  0
  6  9  1  0  0  0  0
  6 10  1  0  0  0  0
  8 11  1  0  0  0  0
 12  9  1  6  0  0  0
 10 13  1  0  0  0  0
 11 14  1  0  0  0  0
 12 15  1  0  0  0  0
 12 16  1  0  0  0  0
 14 17  1  0  0  0  0
 14 18  1  0  0  0  0
 15 19  1  0  0  0  0
 15 20  1  1  0  0  0
 16 21  1  0  0  0  0
 17 22  2  0  0  0  0
 17 23  1  0  0  0  0
 24 19  1  6  0  0  0
 19 25  1  1  0  0  0
 21 26  1  6  0  0  0
 22 27  1  0  0  0  0
 23 28  2  0  0  0  0
 24 29  1  0  0  0  0
 25 30  1  0  0  0  0
 27 31  2  0  0  0  0
 29 32  1  0  0  0  0
 29 33  1  1  0  0  0
 30 34  1  6  0  0  0
 35 31  1  1  0  0  0
 32 36  1  0  0  0  0
 32 37  1  1  0  0  0
 33 38  1  0  0  0  0
 35 39  1  0  0  0  0
 35 40  1  0  0  0  0
 36 41  1  0  0  0  0
 39 42  2  0  0  0  0
 39 43  1  0  0  0  0
 40 44  1  0  0  0  0
 41 45  1  0  0  0  0
 41 46  1  6  0  0  0
 42 47  1  0  0  0  0
 42 48  1  0  0  0  0
 43 49  1  0  0  0  0
 43 50  1  6  0  0  0
 44 51  1  0  0  0  0
 44 52  1  1  0  0  0
 45 53  1  0  0  0  0
 47 54  2  0  0  0  0
 47 55  1  0  0  0  0
 48 56  1  0  0  0  0
 49 57  1  1  0  0  0
 51 58  1  1  0  0  0
 51 59  1  0  0  0  0
 51 60  1  0  0  0  0
 53 61  1  0  0  0  0
 54 62  1  0  0  0  0
 59 63  3  0  0  0  0
 61 64  2  0  0  0  0
 61 65  1  0  0  0  0
 62 66  2  0  0  0  0
 13 15  1  0  0  0  0
 21 24  1  0  0  0  0
 28 31  1  0  0  0  0
 30 32  1  0  0  0  0
 36 38  1  1  0  0  0
 44 49  1  0  0  0  0
 50 55  1  0  0  0  0
 56 62  1  0  0  0  0
 57 60  1  0  0  0  0
M  END
>  <MolRegNo>
312053

>  <m>
=

>  <Value>
17

>  <Unit>
nM

>  <Type>
Ki

>  <pValue>
7.77

>  <Ligand Efficiency>
0.16

>  <Binding Efficiency>
8.38

>  <Surface Efficiency>
4.99

>  <Assay Index>
235287

>  <Assay Category>


>  <Assay Organism>
Homo sapiens

>  <Target ID>
56

>  <Target Name>
Androgen Receptor

>  <Target Organism>
Homo sapiens

>  <Target Description>
Target is a single protein chain

>  <Sequence Accession>
P10275

>  <Reference>
J Med Chem 47 (17), 4213-4230 (2004)

>  <Pubmed ID>
15293993

>  <DOI>
10.1021/jm0400045

$$$$
312054
Actelion Java MolfileCreator 1.0

 62 70  0  0  1  0  0  0  0  0999 V2000
    0.0000   -0.0000   -0.0000 O   0  0  0  0  0  0  0  0  0  0  0  0
    1.3042    0.7748   -0.0000 C   0  0  0  0  0  0  0  0  0  0  0  0
    2.5955    0.0258   -0.0000 C   0  0  0  0  0  0  0  0  0  0  0  0
    1.3042    2.2856   -0.0000 C   0  0  0  0  0  0  0  0  0  0  0  0
    3.8739    0.7748   -0.0000 C   0  0  0  0  0  0  0  0  0  0  0  0
    2.5955    3.0474   -0.0000 C   0  0  0  0  0  0  0  0  0  0  0  0
    3.8739    2.2856   -0.0000 C   0  0  0  0  0  0  0  0  0  0  0  0
    5.1651    0.0517   -0.0000 C   0  0  0  0  0  0  0  0  0  0  0  0
    5.1651    3.0603   -0.0000 C   0  0  0  0  0  0  0  0  0  0  0  0
    6.4435    0.8264   -0.0000 C   0  0  0  0  0  0  0  0  0  0  0  0
    5.1522    4.5712   -0.0000 C   0  0  0  0  0  0  0  0  0  0  0  0
    6.4435    2.3114   -0.0000 C   0  0  0  0  0  0  0  0  0  0  0  0
    4.2483    5.0748   -0.0000 C   0  0  0  0  0  0  0  0  0  0  0  0
    6.4306    5.3459   -0.0000 C   0  0  0  0  0  0  0  0  0  0  0  0
    7.7348    3.0862   -0.0000 C   0  0  0  0  0  0  0  0  0  0  0  0
    4.0030    6.5597   -0.0000 C   0  0  0  0  0  0  0  0  0  0  0  0
    3.0603    4.1321   -0.0000 C   0  0  0  0  0  0  0  0  0  0  0  0
    7.7219    4.5970   -0.0000 C   0  0  0  0  0  0  0  0  0  0  0  0
    9.1552    2.6342   -0.0000 C   0  0  0  0  0  0  0  0  0  0  0  0
    2.5826    7.1279   -0.0000 C   0  0  0  0  0  0  0  0  0  0  0  0
    1.6141    4.7003   -0.0000 C   0  0  0  0  0  0  0  0  0  0  0  0
    9.1423    5.1006   -0.0000 C   0  0  0  0  0  0  0  0  0  0  0  0
    7.7348    6.2498   -0.0000 C   0  0  0  0  0  0  0  0  0  0  0  0
   10.0333    3.8739   -0.0000 C   0  0  0  0  0  0  0  0  0  0  0  0
    1.3946    6.1982   -0.0000 C   0  0  0  0  0  0  0  0  0  0  0  0
    9.1036    6.7018   -0.0000 O   0  0  0  0  0  0  0  0  0  0  0  0
   10.4336    5.8495   -0.0000 C   0  0  0  0  0  0  0  0  0  0  0  0
    0.0646    6.9600   -0.0000 N   0  0  0  0  0  0  0  0  0  0  0  0
   11.7378    6.6372   -0.0000 C   0  0  0  0  0  0  0  0  0  0  0  0
    1.4075    8.1609   -0.0000 C   0  0  0  0  0  0  0  0  0  0  0  0
   -1.4462    6.8309   -0.0000 C   0  0  0  0  0  0  0  0  0  0  0  0
    1.3946    9.6717   -0.0000 C   0  0  0  0  0  0  0  0  0  0  0  0
    2.6988   10.4207   -0.0000 C   0  0  0  0  0  0  0  0  0  0  0  0
    2.6988   11.9444   -0.0000 O   0  0  0  0  0  0  0  0  0  0  0  0
    3.9901   12.7192   -0.0000 C   0  0  0  0  0  0  0  0  0  0  0  0
    5.2943   11.9702   -0.0000 C   0  0  0  0  0  0  0  0  0  0  0  0
    3.9772   14.2429   -0.0000 C   0  0  0  0  0  0  0  0  0  0  0  0
    6.5597   12.7450   -0.0000 C   0  0  0  0  0  0  0  0  0  0  0  0
    5.2814   15.0177   -0.0000 C   0  0  0  0  0  0  0  0  0  0  0  0
    6.5726   14.2687   -0.0000 C   0  0  0  0  0  0  0  0  0  0  0  0
    7.8510   11.9960   -0.0000 C   0  0  0  0  0  0  0  0  0  0  0  0
    7.8639   15.0435   -0.0000 C   0  0  0  0  0  0  0  0  0  0  0  0
    6.5339   15.8053   -0.0000 C   0  0  0  0  0  0  0  0  0  0  0  0
    9.1681   12.7708   -0.0000 C   0  0  0  0  0  0  0  0  0  0  0  0
    9.1552   14.2687   -0.0000 C   0  0  0  0  0  0  0  0  0  0  0  0
    7.8639   16.5672   -0.0000 C   0  0  0  0  0  0  0  0  0  0  0  0
   10.2270   11.7120   -0.0000 O   0  0  0  0  0  0  0  0  0  0  0  0
   10.4594   15.0435   -0.0000 C   0  0  0  0  0  0  0  0  0  0  0  0
    9.1552   17.3420   -0.0000 C   0  0  0  0  0  0  0  0  0  0  0  0
   10.4723   16.5801   -0.0000 C   0  0  0  0  0  0  0  0  0  0  0  0
   11.8798   14.5528   -0.0000 C   0  0  0  0  0  0  0  0  0  0  0  0
    9.1681   18.7882   -0.0000 O   0  0  0  0  0  0  0  0  0  0  0  0
   11.8927   17.0062   -0.0000 C   0  0  0  0  0  0  0  0  0  0  0  0
   10.4852   17.7681   -0.0000 C   0  0  0  0  0  0  0  0  0  0  0  0
   12.6546   15.7149   -0.0000 C   0  0  0  0  0  0  0  0  0  0  0  0
   11.9057   18.6332   -0.0000 C   0  0  0  0  0  0  0  0  0  0  0  0
   13.1969   19.4338   -0.0000 C   0  0  0  0  0  0  0  0  0  0  0  0
   10.7951   19.3047   -0.0000 C   0  0  0  0  0  0  0  0  0  0  0  0
   14.4882   18.6849   -0.0000 C   0  0  0  0  0  0  0  0  0  0  0  0
   15.7924   19.4597   -0.0000 C   0  0  0  0  0  0  0  0  0  0  0  0
   15.7795   20.9705   -0.0000 O   0  0  0  0  0  0  0  0  0  0  0  0
   17.0837   18.7366   -0.0000 O   0  0  0  0  0  0  0  0  0  0  0  0
  1  2  2  0  0  0  0
  2  3  1  0  0  0  0
  2  4  1  0  0  0  0
  3  5  2  0  0  0  0
  4  6  1  0  0  0  0
  5  7  1  0  0  0  0
  5  8  1  0  0  0  0
  7  9  2  0  0  0  0
  8 10  1  0  0  0  0
  9 11  1  0  0  0  0
  9 12  1  0  0  0  0
 11 13  1  1  0  0  0
 11 14  1  0  0  0  0
 12 15  1  0  0  0  0
 13 16  2  0  0  0  0
 13 17  1  0  0  0  0
 14 18  1  0  0  0  0
 15 19  1  1  0  0  0
 16 20  1  0  0  0  0
 17 21  2  0  0  0  0
 18 22  1  0  0  0  0
 18 23  1  1  0  0  0
 19 24  1  0  0  0  0
 20 25  2  0  0  0  0
 22 26  1  1  0  0  0
 22 27  1  0  0  0  0
 25 28  1  0  0  0  0
 27 29  3  0  0  0  0
 28 30  1  0  0  0  0
 28 31  1  0  0  0  0
 30 32  1  0  0  0  0
 32 33  1  0  0  0  0
 33 34  1  0  0  0  0
 34 35  1  0  0  0  0
 35 36  1  0  0  0  0
 35 37  1  0  0  0  0
 38 36  1  6  0  0  0
 37 39  1  0  0  0  0
 38 40  1  0  0  0  0
 38 41  1  0  0  0  0
 40 42  1  0  0  0  0
 40 43  1  1  0  0  0
 41 44  1  0  0  0  0
 45 42  1  6  0  0  0
 42 46  1  1  0  0  0
 44 47  1  6  0  0  0
 45 48  1  0  0  0  0
 46 49  1  0  0  0  0
 48 50  1  0  0  0  0
 48 51  1  1  0  0  0
 49 52  1  6  0  0  0
 50 53  1  0  0  0  0
 50 54  1  1  0  0  0
 51 55  1  0  0  0  0
 53 56  1  0  0  0  0
 56 57  1  0  0  0  0
 56 58  1  6  0  0  0
 57 59  1  0  0  0  0
 59 60  1  0  0  0  0
 60 61  2  0  0  0  0
 60 62  1  0  0  0  0
  6  7  1  0  0  0  0
 12 10  1  6  0  0  0
 15 18  1  0  0  0  0
 21 25  1  0  0  0  0
 22 24  1  0  0  0  0
 39 40  1  0  0  0  0
 44 45  1  0  0  0  0
 49 50  1  0  0  0  0
 53 55  1  1  0  0  0
M  END
>  <MolRegNo>
312054

>  <m>
=

>  <Value>
4.6

>  <Unit>
nM

>  <Type>
Ki

>  <pValue>
8.34

>  <Ligand Efficiency>
0.18

>  <Binding Efficiency>
9.81

>  <Surface Efficiency>
6.54

>  <Assay Index>
235287

>  <Assay Category>


>  <Assay Organism>
Homo sapiens

>  <Target ID>
56

>  <Target Name>
Androgen Receptor

>  <Target Organism>
Homo sapiens

>  <Target Description>
Target is a single protein chain

>  <Sequence Accession>
P10275

>  <Reference>
J Med Chem 47 (17), 4213-4230 (2004)

>  <Pubmed ID>
15293993

>  <DOI>
10.1021/jm0400045

$$$$
1369788
Actelion Java MolfileCreator 1.0

 64 72  0  0  1  0  0  0  0  0999 V2000
    0.0000   -0.0000   -0.0000 O   0  0  0  0  0  0  0  0  0  0  0  0
    1.3022    0.7736   -0.0000 C   0  0  0  0  0  0  0  0  0  0  0  0
    2.5914    0.0258   -0.0000 C   0  0  0  0  0  0  0  0  0  0  0  0
    1.2893    2.2949   -0.0000 C   0  0  0  0  0  0  0  0  0  0  0  0
    3.8807    0.7994   -0.0000 C   0  0  0  0  0  0  0  0  0  0  0  0
    2.5786    3.0427   -0.0000 C   0  0  0  0  0  0  0  0  0  0  0  0
    3.8807    2.3207   -0.0000 C   0  0  0  0  0  0  0  0  0  0  0  0
    5.1700    0.0516   -0.0000 C   0  0  0  0  0  0  0  0  0  0  0  0
    5.1571    3.0814   -0.0000 C   0  0  0  0  0  0  0  0  0  0  0  0
    6.4851    0.8251   -0.0000 C   0  0  0  0  0  0  0  0  0  0  0  0
    5.1442    4.6156   -0.0000 C   0  0  0  0  0  0  0  0  0  0  0  0
    6.4464    2.3465   -0.0000 C   0  0  0  0  0  0  0  0  0  0  0  0
    4.2546    5.0926   -0.0000 C   0  0  0  0  0  0  0  0  0  0  0  0
    6.4335    5.3892   -0.0000 C   0  0  0  0  0  0  0  0  0  0  0  0
    7.7357    3.1072   -0.0000 C   0  0  0  0  0  0  0  0  0  0  0  0
    4.0097    6.6011   -0.0000 C   0  0  0  0  0  0  0  0  0  0  0  0
    3.0556    4.1644   -0.0000 C   0  0  0  0  0  0  0  0  0  0  0  0
    7.7228    4.6414   -0.0000 C   0  0  0  0  0  0  0  0  0  0  0  0
    9.1668    2.6688   -0.0000 C   0  0  0  0  0  0  0  0  0  0  0  0
    2.5786    7.1684   -0.0000 C   0  0  0  0  0  0  0  0  0  0  0  0
    1.6245    4.7316   -0.0000 C   0  0  0  0  0  0  0  0  0  0  0  0
    9.1539    5.1055   -0.0000 C   0  0  0  0  0  0  0  0  0  0  0  0
    7.7357    6.2788   -0.0000 C   0  0  0  0  0  0  0  0  0  0  0  0
   10.0306    3.8936   -0.0000 C   0  0  0  0  0  0  0  0  0  0  0  0
    1.3924    6.2401   -0.0000 C   0  0  0  0  0  0  0  0  0  0  0  0
    9.1152    6.7429   -0.0000 O   0  0  0  0  0  0  0  0  0  0  0  0
   10.4431    5.8791   -0.0000 C   0  0  0  0  0  0  0  0  0  0  0  0
    0.0516    7.0137   -0.0000 N   0  0  0  0  0  0  0  0  0  0  0  0
   11.7324    6.6656   -0.0000 C   0  0  0  0  0  0  0  0  0  0  0  0
    0.0258    8.5608   -0.0000 C   0  0  0  0  0  0  0  0  0  0  0  0
   -1.2635    6.2659   -0.0000 C   0  0  0  0  0  0  0  0  0  0  0  0
   -1.4569    8.9476   -0.0000 C   0  0  0  0  0  0  0  0  0  0  0  0
   -1.4569   10.4947   -0.0000 O   0  0  0  0  0  0  0  0  0  0  0  0
   -1.4698   12.0161   -0.0000 C   0  0  0  0  0  0  0  0  0  0  0  0
   -0.1676   12.7896   -0.0000 C   0  0  0  0  0  0  0  0  0  0  0  0
   -0.1676   14.3110   -0.0000 O   0  0  0  0  0  0  0  0  0  0  0  0
    1.1217   15.0845   -0.0000 C   0  0  0  0  0  0  0  0  0  0  0  0
    2.4238   14.3368   -0.0000 C   0  0  0  0  0  0  0  0  0  0  0  0
    1.1088   16.6059   -0.0000 C   0  0  0  0  0  0  0  0  0  0  0  0
    3.7131   15.1103   -0.0000 C   0  0  0  0  0  0  0  0  0  0  0  0
    2.4109   17.3795   -0.0000 C   0  0  0  0  0  0  0  0  0  0  0  0
    3.7131   16.6317   -0.0000 C   0  0  0  0  0  0  0  0  0  0  0  0
    5.0024   14.3625   -0.0000 C   0  0  0  0  0  0  0  0  0  0  0  0
    5.0024   17.4052   -0.0000 C   0  0  0  0  0  0  0  0  0  0  0  0
    3.6873   18.1788   -0.0000 C   0  0  0  0  0  0  0  0  0  0  0  0
    6.3046   15.1232   -0.0000 C   0  0  0  0  0  0  0  0  0  0  0  0
    6.2917   16.6317   -0.0000 C   0  0  0  0  0  0  0  0  0  0  0  0
    5.0024   18.9266   -0.0000 C   0  0  0  0  0  0  0  0  0  0  0  0
    7.3618   14.0789   -0.0000 O   0  0  0  0  0  0  0  0  0  0  0  0
    7.5810   17.3795   -0.0000 C   0  0  0  0  0  0  0  0  0  0  0  0
    6.3304   19.6744   -0.0000 C   0  0  0  0  0  0  0  0  0  0  0  0
    7.6196   18.9395   -0.0000 C   0  0  0  0  0  0  0  0  0  0  0  0
    9.0378   16.9153   -0.0000 C   0  0  0  0  0  0  0  0  0  0  0  0
    6.3304   21.1570   -0.0000 O   0  0  0  0  0  0  0  0  0  0  0  0
    9.0507   19.3778   -0.0000 C   0  0  0  0  0  0  0  0  0  0  0  0
    7.6196   20.1256   -0.0000 C   0  0  0  0  0  0  0  0  0  0  0  0
    9.7985   18.0886   -0.0000 C   0  0  0  0  0  0  0  0  0  0  0  0
    9.0378   21.0281   -0.0000 C   0  0  0  0  0  0  0  0  0  0  0  0
   10.3271   21.7759   -0.0000 C   0  0  0  0  0  0  0  0  0  0  0  0
    7.9419   21.6599   -0.0000 C   0  0  0  0  0  0  0  0  0  0  0  0
   11.6422   21.0668   -0.0000 C   0  0  0  0  0  0  0  0  0  0  0  0
   12.9315   21.8017   -0.0000 C   0  0  0  0  0  0  0  0  0  0  0  0
   12.9186   23.3746   -0.0000 O   0  0  0  0  0  0  0  0  0  0  0  0
   14.2207   21.0926   -0.0000 O   0  0  0  0  0  0  0  0  0  0  0  0
  1  2  2  0  0  0  0
  2  3  1  0  0  0  0
  2  4  1  0  0  0  0
  3  5  2  0  0  0  0
  4  6  1  0  0  0  0
  5  7  1  0  0  0  0
  5  8  1  0  0  0  0
  7  9  2  0  0  0  0
  8 10  1  0  0  0  0
  9 11  1  0  0  0  0
  9 12  1  0  0  0  0
 11 13  1  1  0  0  0
 11 14  1  0  0  0  0
 12 15  1  0  0  0  0
 13 16  2  0  0  0  0
 13 17  1  0  0  0  0
 14 18  1  0  0  0  0
 15 19  1  1  0  0  0
 16 20  1  0  0  0  0
 17 21  2  0  0  0  0
 18 22  1  0  0  0  0
 18 23  1  1  0  0  0
 19 24  1  0  0  0  0
 20 25  2  0  0  0  0
 22 26  1  1  0  0  0
 22 27  1  0  0  0  0
 25 28  1  0  0  0  0
 27 29  3  0  0  0  0
 28 30  1  0  0  0  0
 28 31  1  0  0  0  0
 30 32  1  0  0  0  0
 32 33  1  0  0  0  0
 33 34  1  0  0  0  0
 34 35  1  0  0  0  0
 35 36  1  0  0  0  0
 37 36  1  6  0  0  0
 37 38  1  0  0  0  0
 37 39  1  0  0  0  0
 40 38  1  6  0  0  0
 39 41  1  0  0  0  0
 40 42  1  0  0  0  0
 40 43  1  0  0  0  0
 42 44  1  0  0  0  0
 42 45  1  1  0  0  0
 43 46  1  0  0  0  0
 47 44  1  6  0  0  0
 44 48  1  1  0  0  0
 46 49  1  6  0  0  0
 47 50  1  0  0  0  0
 48 51  1  0  0  0  0
 50 52  1  0  0  0  0
 50 53  1  1  0  0  0
 51 54  1  6  0  0  0
 52 55  1  0  0  0  0
 52 56  1  1  0  0  0
 53 57  1  0  0  0  0
 55 58  1  0  0  0  0
 58 59  1  0  0  0  0
 58 60  1  6  0  0  0
 59 61  1  0  0  0  0
 61 62  1  0  0  0  0
 62 63  2  0  0  0  0
 62 64  1  0  0  0  0
  6  7  1  0  0  0  0
 12 10  1  6  0  0  0
 15 18  1  0  0  0  0
 21 25  1  0  0  0  0
 22 24  1  0  0  0  0
 41 42  1  0  0  0  0
 46 47  1  0  0  0  0
 51 52  1  0  0  0  0
 55 57  1  1  0  0  0
M  END
>  <MolRegNo>
1369788

>  <m>
=

>  <Value>
4.8

>  <Unit>
nM

>  <Type>
Ki

>  <pValue>
8.32

>  <Ligand Efficiency>
0.18

>  <Binding Efficiency>
9.45

>  <Surface Efficiency>
6.08

>  <Assay Index>
235287

>  <Assay Category>


>  <Assay Organism>
Homo sapiens

>  <Target ID>
56

>  <Target Name>
Androgen Receptor

>  <Target Organism>
Homo sapiens

>  <Target Description>
Target is a single protein chain

>  <Sequence Accession>
P10275

>  <Reference>
J Med Chem 47 (17), 4213-4230 (2004)

>  <Pubmed ID>
15293993

>  <DOI>
10.1021/jm0400045

$$$$
1369692
Actelion Java MolfileCreator 1.0

 64 72  0  0  1  0  0  0  0  0999 V2000
    0.0000   -0.0000   -0.0000 O   0  0  0  0  0  0  0  0  0  0  0  0
    1.3022    0.7736   -0.0000 C   0  0  0  0  0  0  0  0  0  0  0  0
    2.5914    0.0258   -0.0000 C   0  0  0  0  0  0  0  0  0  0  0  0
    1.2893    2.2949   -0.0000 C   0  0  0  0  0  0  0  0  0  0  0  0
    3.8807    0.7994   -0.0000 C   0  0  0  0  0  0  0  0  0  0  0  0
    2.5786    3.0427   -0.0000 C   0  0  0  0  0  0  0  0  0  0  0  0
    3.8807    2.3207   -0.0000 C   0  0  0  0  0  0  0  0  0  0  0  0
    5.1700    0.0516   -0.0000 C   0  0  0  0  0  0  0  0  0  0  0  0
    5.1571    3.0814   -0.0000 C   0  0  0  0  0  0  0  0  0  0  0  0
    6.4851    0.8251   -0.0000 C   0  0  0  0  0  0  0  0  0  0  0  0
    5.1442    4.6156   -0.0000 C   0  0  0  0  0  0  0  0  0  0  0  0
    6.4464    2.3465   -0.0000 C   0  0  0  0  0  0  0  0  0  0  0  0
    4.2546    5.0926   -0.0000 C   0  0  0  0  0  0  0  0  0  0  0  0
    6.4335    5.3892   -0.0000 C   0  0  0  0  0  0  0  0  0  0  0  0
    7.7357    3.1072   -0.0000 C   0  0  0  0  0  0  0  0  0  0  0  0
    4.0097    6.6011   -0.0000 C   0  0  0  0  0  0  0  0  0  0  0  0
    3.0556    4.1644   -0.0000 C   0  0  0  0  0  0  0  0  0  0  0  0
    7.7228    4.6414   -0.0000 C   0  0  0  0  0  0  0  0  0  0  0  0
    9.1668    2.6688   -0.0000 C   0  0  0  0  0  0  0  0  0  0  0  0
    2.5786    7.1684   -0.0000 C   0  0  0  0  0  0  0  0  0  0  0  0
    1.6245    4.7316   -0.0000 C   0  0  0  0  0  0  0  0  0  0  0  0
    9.1539    5.1055   -0.0000 C   0  0  0  0  0  0  0  0  0  0  0  0
    7.7357    6.2788   -0.0000 C   0  0  0  0  0  0  0  0  0  0  0  0
   10.0306    3.8936   -0.0000 C   0  0  0  0  0  0  0  0  0  0  0  0
    1.3924    6.2401   -0.0000 C   0  0  0  0  0  0  0  0  0  0  0  0
    9.1152    6.7429   -0.0000 O   0  0  0  0  0  0  0  0  0  0  0  0
   10.4431    5.8791   -0.0000 C   0  0  0  0  0  0  0  0  0  0  0  0
    0.0516    7.0137   -0.0000 N   0  0  0  0  0  0  0  0  0  0  0  0
   11.7324    6.6656   -0.0000 C   0  0  0  0  0  0  0  0  0  0  0  0
    0.0258    8.5608   -0.0000 C   0  0  0  0  0  0  0  0  0  0  0  0
   -1.2635    6.2659   -0.0000 C   0  0  0  0  0  0  0  0  0  0  0  0
   -1.4569    8.9476   -0.0000 C   0  0  0  0  0  0  0  0  0  0  0  0
   -1.4569   10.4947   -0.0000 O   0  0  0  0  0  0  0  0  0  0  0  0
   -1.4698   12.0161   -0.0000 C   0  0  0  0  0  0  0  0  0  0  0  0
   -0.1676   12.7896   -0.0000 C   0  0  0  0  0  0  0  0  0  0  0  0
   -0.1676   14.3110   -0.0000 O   0  0  0  0  0  0  0  0  0  0  0  0
    1.1217   15.0845   -0.0000 C   0  0  0  0  0  0  0  0  0  0  0  0
    2.4238   14.3368   -0.0000 C   0  0  0  0  0  0  0  0  0  0  0  0
    1.1088   16.6059   -0.0000 C   0  0  0  0  0  0  0  0  0  0  0  0
    3.7131   15.1103   -0.0000 C   0  0  0  0  0  0  0  0  0  0  0  0
    2.4109   17.3795   -0.0000 C   0  0  0  0  0  0  0  0  0  0  0  0
    3.7131   16.6317   -0.0000 C   0  0  0  0  0  0  0  0  0  0  0  0
    5.0024   14.3625   -0.0000 C   0  0  0  0  0  0  0  0  0  0  0  0
    5.0024   17.4052   -0.0000 C   0  0  0  0  0  0  0  0  0  0  0  0
    3.6873   18.1788   -0.0000 C   0  0  0  0  0  0  0  0  0  0  0  0
    6.3046   15.1232   -0.0000 C   0  0  0  0  0  0  0  0  0  0  0  0
    6.2917   16.6317   -0.0000 C   0  0  0  0  0  0  0  0  0  0  0  0
    5.0024   18.9266   -0.0000 C   0  0  0  0  0  0  0  0  0  0  0  0
    7.3618   14.0789   -0.0000 O   0  0  0  0  0  0  0  0  0  0  0  0
    7.5810   17.3795   -0.0000 C   0  0  0  0  0  0  0  0  0  0  0  0
    6.3304   19.6744   -0.0000 C   0  0  0  0  0  0  0  0  0  0  0  0
    7.6196   18.9395   -0.0000 C   0  0  0  0  0  0  0  0  0  0  0  0
    9.0378   16.9153   -0.0000 C   0  0  0  0  0  0  0  0  0  0  0  0
    6.3304   21.1570   -0.0000 O   0  0  0  0  0  0  0  0  0  0  0  0
    9.0507   19.3778   -0.0000 C   0  0  0  0  0  0  0  0  0  0  0  0
    7.6196   20.1256   -0.0000 C   0  0  0  0  0  0  0  0  0  0  0  0
    9.7985   18.0886   -0.0000 C   0  0  0  0  0  0  0  0  0  0  0  0
    9.0378   21.0281   -0.0000 C   0  0  0  0  0  0  0  0  0  0  0  0
   10.3271   21.7759   -0.0000 C   0  0  0  0  0  0  0  0  0  0  0  0
    7.9419   21.6599   -0.0000 C   0  0  0  0  0  0  0  0  0  0  0  0
   11.6422   21.0668   -0.0000 C   0  0  0  0  0  0  0  0  0  0  0  0
   12.9315   21.8017   -0.0000 C   0  0  0  0  0  0  0  0  0  0  0  0
   12.9186   23.3746   -0.0000 O   0  0  0  0  0  0  0  0  0  0  0  0
   14.2207   21.0926   -0.0000 O   0  0  0  0  0  0  0  0  0  0  0  0
  1  2  2  0  0  0  0
  2  3  1  0  0  0  0
  2  4  1  0  0  0  0
  3  5  2  0  0  0  0
  4  6  1  0  0  0  0
  5  7  1  0  0  0  0
  5  8  1  0  0  0  0
  7  9  2  0  0  0  0
  8 10  1  0  0  0  0
  9 11  1  0  0  0  0
  9 12  1  0  0  0  0
 11 13  1  1  0  0  0
 11 14  1  0  0  0  0
 12 15  1  0  0  0  0
 13 16  2  0  0  0  0
 13 17  1  0  0  0  0
 14 18  1  0  0  0  0
 15 19  1  1  0  0  0
 16 20  1  0  0  0  0
 17 21  2  0  0  0  0
 18 22  1  0  0  0  0
 18 23  1  1  0  0  0
 19 24  1  0  0  0  0
 20 25  2  0  0  0  0
 22 26  1  1  0  0  0
 22 27  1  0  0  0  0
 25 28  1  0  0  0  0
 27 29  3  0  0  0  0
 28 30  1  0  0  0  0
 28 31  1  0  0  0  0
 30 32  1  0  0  0  0
 32 33  1  0  0  0  0
 33 34  1  0  0  0  0
 34 35  1  0  0  0  0
 35 36  1  0  0  0  0
 37 36  1  1  0  0  0
 37 38  1  0  0  0  0
 37 39  1  0  0  0  0
 40 38  1  6  0  0  0
 39 41  1  0  0  0  0
 40 42  1  0  0  0  0
 40 43  1  0  0  0  0
 42 44  1  0  0  0  0
 42 45  1  1  0  0  0
 43 46  1  0  0  0  0
 47 44  1  6  0  0  0
 44 48  1  1  0  0  0
 46 49  1  6  0  0  0
 47 50  1  0  0  0  0
 48 51  1  0  0  0  0
 50 52  1  0  0  0  0
 50 53  1  1  0  0  0
 51 54  1  6  0  0  0
 52 55  1  0  0  0  0
 52 56  1  1  0  0  0
 53 57  1  0  0  0  0
 55 58  1  0  0  0  0
 58 59  1  0  0  0  0
 58 60  1  6  0  0  0
 59 61  1  0  0  0  0
 61 62  1  0  0  0  0
 62 63  2  0  0  0  0
 62 64  1  0  0  0  0
  6  7  1  0  0  0  0
 12 10  1  6  0  0  0
 15 18  1  0  0  0  0
 21 25  1  0  0  0  0
 22 24  1  0  0  0  0
 41 42  1  0  0  0  0
 46 47  1  0  0  0  0
 51 52  1  0  0  0  0
 55 57  1  1  0  0  0
M  END
>  <MolRegNo>
1369692

>  <m>
=

>  <Value>
3.3

>  <Unit>
nM

>  <Type>
Ki

>  <pValue>
8.48

>  <Ligand Efficiency>
0.18

>  <Binding Efficiency>
9.64

>  <Surface Efficiency>
6.2

>  <Assay Index>
235287

>  <Assay Category>


>  <Assay Organism>
Homo sapiens

>  <Target ID>
56

>  <Target Name>
Androgen Receptor

>  <Target Organism>
Homo sapiens

>  <Target Description>
Target is a single protein chain

>  <Sequence Accession>
P10275

>  <Reference>
J Med Chem 47 (17), 4213-4230 (2004)

>  <Pubmed ID>
15293993

>  <DOI>
10.1021/jm0400045

$$$$
312268
Actelion Java MolfileCreator 1.0

 62 70  0  0  1  0  0  0  0  0999 V2000
    0.0000   -0.0000   -0.0000 O   0  0  0  0  0  0  0  0  0  0  0  0
    1.3088    0.7775   -0.0000 C   0  0  0  0  0  0  0  0  0  0  0  0
    2.6176    0.0130   -0.0000 C   0  0  0  0  0  0  0  0  0  0  0  0
    1.2959    2.3066   -0.0000 C   0  0  0  0  0  0  0  0  0  0  0  0
    3.8876    0.7905   -0.0000 C   0  0  0  0  0  0  0  0  0  0  0  0
    2.6047    3.0582   -0.0000 C   0  0  0  0  0  0  0  0  0  0  0  0
    3.9005    2.3196   -0.0000 C   0  0  0  0  0  0  0  0  0  0  0  0
    5.1964    0.0518   -0.0000 C   0  0  0  0  0  0  0  0  0  0  0  0
    5.1964    3.0841   -0.0000 C   0  0  0  0  0  0  0  0  0  0  0  0
    6.4922    0.8293   -0.0000 C   0  0  0  0  0  0  0  0  0  0  0  0
    5.1834    4.6132   -0.0000 C   0  0  0  0  0  0  0  0  0  0  0  0
    6.4922    2.3325   -0.0000 C   0  0  0  0  0  0  0  0  0  0  0  0
    4.2893    5.1057   -0.0000 C   0  0  0  0  0  0  0  0  0  0  0  0
    6.4793    5.3907   -0.0000 C   0  0  0  0  0  0  0  0  0  0  0  0
    7.7881    3.1100   -0.0000 C   0  0  0  0  0  0  0  0  0  0  0  0
    3.0841    4.1597   -0.0000 C   0  0  0  0  0  0  0  0  0  0  0  0
    4.0301    6.6218   -0.0000 C   0  0  0  0  0  0  0  0  0  0  0  0
    7.7751    4.6392   -0.0000 C   0  0  0  0  0  0  0  0  0  0  0  0
    9.2006    2.6695   -0.0000 C   0  0  0  0  0  0  0  0  0  0  0  0
    1.6457    4.7299   -0.0000 C   0  0  0  0  0  0  0  0  0  0  0  0
    2.6176    7.1661   -0.0000 C   0  0  0  0  0  0  0  0  0  0  0  0
    9.1876    5.1057   -0.0000 C   0  0  0  0  0  0  0  0  0  0  0  0
    7.7881    6.2849   -0.0000 C   0  0  0  0  0  0  0  0  0  0  0  0
   10.1076    3.9135   -0.0000 C   0  0  0  0  0  0  0  0  0  0  0  0
    1.4125    6.2460   -0.0000 C   0  0  0  0  0  0  0  0  0  0  0  0
    9.1746    6.7384   -0.0000 O   0  0  0  0  0  0  0  0  0  0  0  0
   10.4964    5.8832   -0.0000 C   0  0  0  0  0  0  0  0  0  0  0  0
    0.0907    7.0235   -0.0000 N   0  0  0  0  0  0  0  0  0  0  0  0
   11.8052    6.6736   -0.0000 C   0  0  0  0  0  0  0  0  0  0  0  0
    0.1037    8.3323   -0.0000 C   0  0  0  0  0  0  0  0  0  0  0  0
   -1.2440    6.2849   -0.0000 C   0  0  0  0  0  0  0  0  0  0  0  0
   -0.6479    8.7988   -0.0000 C   0  0  0  0  0  0  0  0  0  0  0  0
    0.8812   10.0299   -0.0000 C   0  0  0  0  0  0  0  0  0  0  0  0
    0.8812   11.5720   -0.0000 C   0  0  0  0  0  0  0  0  0  0  0  0
   -0.4406   12.3106   -0.0000 C   0  0  0  0  0  0  0  0  0  0  0  0
    2.1770   12.3495   -0.0000 C   0  0  0  0  0  0  0  0  0  0  0  0
   -1.7624   13.0881   -0.0000 O   0  0  0  0  0  0  0  0  0  0  0  0
   -0.4535   13.8527   -0.0000 C   0  0  0  0  0  0  0  0  0  0  0  0
    2.1770   13.8527   -0.0000 C   0  0  0  0  0  0  0  0  0  0  0  0
    3.4729   11.5720   -0.0000 C   0  0  0  0  0  0  0  0  0  0  0  0
    0.8423   14.6431   -0.0000 C   0  0  0  0  0  0  0  0  0  0  0  0
    3.4729   14.6172   -0.0000 C   0  0  0  0  0  0  0  0  0  0  0  0
    2.1511   15.3818   -0.0000 C   0  0  0  0  0  0  0  0  0  0  0  0
    4.7817   12.3365   -0.0000 C   0  0  0  0  0  0  0  0  0  0  0  0
    4.7687   13.8656   -0.0000 C   0  0  0  0  0  0  0  0  0  0  0  0
    3.4599   16.1722   -0.0000 C   0  0  0  0  0  0  0  0  0  0  0  0
    5.8443   11.2739   -0.0000 O   0  0  0  0  0  0  0  0  0  0  0  0
    6.0775   14.6302   -0.0000 C   0  0  0  0  0  0  0  0  0  0  0  0
    4.7947   16.9238   -0.0000 C   0  0  0  0  0  0  0  0  0  0  0  0
    6.0905   16.1593   -0.0000 C   0  0  0  0  0  0  0  0  0  0  0  0
    7.4900   14.1637   -0.0000 C   0  0  0  0  0  0  0  0  0  0  0  0
    4.7947   18.3881   -0.0000 O   0  0  0  0  0  0  0  0  0  0  0  0
    7.5289   16.6258   -0.0000 C   0  0  0  0  0  0  0  0  0  0  0  0
    6.1035   17.3774   -0.0000 C   0  0  0  0  0  0  0  0  0  0  0  0
    8.2805   15.3170   -0.0000 C   0  0  0  0  0  0  0  0  0  0  0  0
    7.5419   18.2845   -0.0000 C   0  0  0  0  0  0  0  0  0  0  0  0
    8.8377   19.0490   -0.0000 C   0  0  0  0  0  0  0  0  0  0  0  0
    6.4145   18.9454   -0.0000 C   0  0  0  0  0  0  0  0  0  0  0  0
   10.1465   18.3104   -0.0000 C   0  0  0  0  0  0  0  0  0  0  0  0
   11.4424   19.0749   -0.0000 C   0  0  0  0  0  0  0  0  0  0  0  0
   11.4294   20.6170   -0.0000 O   0  0  0  0  0  0  0  0  0  0  0  0
   12.7512   18.3363   -0.0000 O   0  0  0  0  0  0  0  0  0  0  0  0
  1  2  2  0  0  0  0
  2  3  1  0  0  0  0
  2  4  1  0  0  0  0
  3  5  2  0  0  0  0
  4  6  1  0  0  0  0
  5  7  1  0  0  0  0
  5  8  1  0  0  0  0
  7  9  2  0  0  0  0
  8 10  1  0  0  0  0
  9 11  1  0  0  0  0
  9 12  1  0  0  0  0
 11 13  1  1  0  0  0
 11 14  1  0  0  0  0
 12 15  1  0  0  0  0
 13 16  2  0  0  0  0
 13 17  1  0  0  0  0
 14 18  1  0  0  0  0
 15 19  1  1  0  0  0
 16 20  1  0  0  0  0
 17 21  2  0  0  0  0
 18 22  1  0  0  0  0
 18 23  1  1  0  0  0
 19 24  1  0  0  0  0
 20 25  2  0  0  0  0
 22 26  1  1  0  0  0
 22 27  1  0  0  0  0
 25 28  1  0  0  0  0
 27 29  3  0  0  0  0
 28 30  1  0  0  0  0
 28 31  1  0  0  0  0
 30 32  1  0  0  0  0
 32 33  1  0  0  0  0
 34 33  1  1  0  0  0
 34 35  1  0  0  0  0
 34 36  1  0  0  0  0
 35 37  1  6  0  0  0
 35 38  1  0  0  0  0
 36 39  1  0  0  0  0
 36 40  1  6  0  0  0
 38 41  1  0  0  0  0
 39 42  1  0  0  0  0
 39 43  1  1  0  0  0
 40 44  1  0  0  0  0
 45 42  1  6  0  0  0
 42 46  1  1  0  0  0
 44 47  1  6  0  0  0
 45 48  1  0  0  0  0
 46 49  1  0  0  0  0
 48 50  1  0  0  0  0
 48 51  1  1  0  0  0
 49 52  1  6  0  0  0
 50 53  1  0  0  0  0
 50 54  1  1  0  0  0
 51 55  1  0  0  0  0
 53 56  1  0  0  0  0
 56 57  1  0  0  0  0
 56 58  1  6  0  0  0
 57 59  1  0  0  0  0
 59 60  1  0  0  0  0
 60 61  2  0  0  0  0
 60 62  1  0  0  0  0
  6  7  1  0  0  0  0
 12 10  1  6  0  0  0
 15 18  1  0  0  0  0
 21 25  1  0  0  0  0
 22 24  1  0  0  0  0
 39 41  1  0  0  0  0
 44 45  1  0  0  0  0
 49 50  1  0  0  0  0
 53 55  1  1  0  0  0
M  END
>  <MolRegNo>
312268

>  <m>
=

>  <Value>
53

>  <Unit>
nM

>  <Type>
Ki

>  <pValue>
7.28

>  <Ligand Efficiency>
0.16

>  <Binding Efficiency>
8.56

>  <Surface Efficiency>
5.25

>  <Assay Index>
235287

>  <Assay Category>


>  <Assay Organism>
Homo sapiens

>  <Target ID>
56

>  <Target Name>
Androgen Receptor

>  <Target Organism>
Homo sapiens

>  <Target Description>
Target is a single protein chain

>  <Sequence Accession>
P10275

>  <Reference>
J Med Chem 47 (17), 4213-4230 (2004)

>  <Pubmed ID>
15293993

>  <DOI>
10.1021/jm0400045

$$$$
312269
Actelion Java MolfileCreator 1.0

 65 73  0  0  1  0  0  0  0  0999 V2000
    0.0000   -0.0000   -0.0000 O   0  0  0  0  0  0  0  0  0  0  0  0
    1.2866    0.7720   -0.0000 C   0  0  0  0  0  0  0  0  0  0  0  0
    2.5861    0.0129   -0.0000 C   0  0  0  0  0  0  0  0  0  0  0  0
    1.2866    2.2773   -0.0000 C   0  0  0  0  0  0  0  0  0  0  0  0
    3.8727    0.7720   -0.0000 C   0  0  0  0  0  0  0  0  0  0  0  0
    2.5732    3.0493   -0.0000 C   0  0  0  0  0  0  0  0  0  0  0  0
    3.8598    2.3030   -0.0000 C   0  0  0  0  0  0  0  0  0  0  0  0
    5.1593    0.0386   -0.0000 C   0  0  0  0  0  0  0  0  0  0  0  0
    5.1464    3.0493   -0.0000 C   0  0  0  0  0  0  0  0  0  0  0  0
    6.4588    0.8234   -0.0000 C   0  0  0  0  0  0  0  0  0  0  0  0
    5.1336    4.5803   -0.0000 C   0  0  0  0  0  0  0  0  0  0  0  0
    6.4202    2.3288   -0.0000 C   0  0  0  0  0  0  0  0  0  0  0  0
    4.2201    5.0692   -0.0000 C   0  0  0  0  0  0  0  0  0  0  0  0
    6.4073    5.3652   -0.0000 C   0  0  0  0  0  0  0  0  0  0  0  0
    7.7068    3.1007   -0.0000 C   0  0  0  0  0  0  0  0  0  0  0  0
    3.0364    4.1171   -0.0000 C   0  0  0  0  0  0  0  0  0  0  0  0
    3.9885    6.5746   -0.0000 C   0  0  0  0  0  0  0  0  0  0  0  0
    7.6939    4.6061   -0.0000 C   0  0  0  0  0  0  0  0  0  0  0  0
    9.1478    2.6375   -0.0000 C   0  0  0  0  0  0  0  0  0  0  0  0
    1.6083    4.6833   -0.0000 C   0  0  0  0  0  0  0  0  0  0  0  0
    2.5604    7.1278   -0.0000 C   0  0  0  0  0  0  0  0  0  0  0  0
    9.1349    5.0950   -0.0000 C   0  0  0  0  0  0  0  0  0  0  0  0
    7.7068    6.2529   -0.0000 C   0  0  0  0  0  0  0  0  0  0  0  0
   10.0098    3.8727   -0.0000 C   0  0  0  0  0  0  0  0  0  0  0  0
    1.3509    6.1886   -0.0000 C   0  0  0  0  0  0  0  0  0  0  0  0
    9.0835    6.7032   -0.0000 O   0  0  0  0  0  0  0  0  0  0  0  0
   10.4087    5.8541   -0.0000 C   0  0  0  0  0  0  0  0  0  0  0  0
    0.0386    6.9606   -0.0000 N   0  0  0  0  0  0  0  0  0  0  0  0
   11.6953    6.6389   -0.0000 C   0  0  0  0  0  0  0  0  0  0  0  0
    0.0257    8.4788   -0.0000 C   0  0  0  0  0  0  0  0  0  0  0  0
   -1.2737    6.2272   -0.0000 C   0  0  0  0  0  0  0  0  0  0  0  0
    1.3123    9.2636   -0.0000 O   0  0  0  0  0  0  0  0  0  0  0  0
   -1.3252    9.1607   -0.0000 C   0  0  0  0  0  0  0  0  0  0  0  0
   -0.0129    9.9198   -0.0000 N   0  0  0  0  0  0  0  0  0  0  0  0
   -0.0257   11.4508   -0.0000 C   0  0  0  0  0  0  0  0  0  0  0  0
    1.4281   11.0777   -0.0000 O   0  0  0  0  0  0  0  0  0  0  0  0
    1.0422   12.5444   -0.0000 O   0  0  0  0  0  0  0  0  0  0  0  0
   -0.0386   13.5995   -0.0000 C   0  0  0  0  0  0  0  0  0  0  0  0
   -0.0515   15.1177   -0.0000 C   0  0  0  0  0  0  0  0  0  0  0  0
   -1.3895   12.8790   -0.0000 C   0  0  0  0  0  0  0  0  0  0  0  0
   -1.3638   15.9154   -0.0000 C   0  0  0  0  0  0  0  0  0  0  0  0
    1.2351   15.8768   -0.0000 C   0  0  0  0  0  0  0  0  0  0  0  0
   -2.7019   13.6381   -0.0000 C   0  0  0  0  0  0  0  0  0  0  0  0
   -2.6761   15.1691   -0.0000 C   0  0  0  0  0  0  0  0  0  0  0  0
   -1.3767   17.4336   -0.0000 C   0  0  0  0  0  0  0  0  0  0  0  0
    1.2480   17.4078   -0.0000 C   0  0  0  0  0  0  0  0  0  0  0  0
    2.6633   15.3878   -0.0000 C   0  0  0  0  0  0  0  0  0  0  0  0
   -3.9885   12.9047   -0.0000 C   0  0  0  0  0  0  0  0  0  0  0  0
   -3.9885   15.9411   -0.0000 C   0  0  0  0  0  0  0  0  0  0  0  0
   -2.7147   16.6873   -0.0000 C   0  0  0  0  0  0  0  0  0  0  0  0
   -0.0515   18.1927   -0.0000 C   0  0  0  0  0  0  0  0  0  0  0  0
    2.6890   17.8710   -0.0000 C   0  0  0  0  0  0  0  0  0  0  0  0
    1.2609   18.5915   -0.0000 C   0  0  0  0  0  0  0  0  0  0  0  0
    3.4481   16.5458   -0.0000 C   0  0  0  0  0  0  0  0  0  0  0  0
   -5.3008   13.6638   -0.0000 C   0  0  0  0  0  0  0  0  0  0  0  0
   -5.3008   15.1949   -0.0000 C   0  0  0  0  0  0  0  0  0  0  0  0
   -0.0515   19.6337   -0.0000 O   0  0  0  0  0  0  0  0  0  0  0  0
    2.6890   19.5050   -0.0000 C   0  0  0  0  0  0  0  0  0  0  0  0
   -6.6132   12.9304   -0.0000 O   0  0  0  0  0  0  0  0  0  0  0  0
    4.0014   20.2770   -0.0000 C   0  0  0  0  0  0  0  0  0  0  0  0
    1.5825   20.1612   -0.0000 C   0  0  0  0  0  0  0  0  0  0  0  0
    5.2751   19.5307   -0.0000 C   0  0  0  0  0  0  0  0  0  0  0  0
    6.5874   20.3156   -0.0000 C   0  0  0  0  0  0  0  0  0  0  0  0
    6.5617   21.8466   -0.0000 O   0  0  0  0  0  0  0  0  0  0  0  0
    7.8740   19.5822   -0.0000 O   0  0  0  0  0  0  0  0  0  0  0  0
  1  2  2  0  0  0  0
  2  3  1  0  0  0  0
  2  4  1  0  0  0  0
  3  5  2  0  0  0  0
  4  6  1  0  0  0  0
  5  7  1  0  0  0  0
  5  8  1  0  0  0  0
  7  9  2  0  0  0  0
  8 10  1  0  0  0  0
  9 11  1  0  0  0  0
  9 12  1  0  0  0  0
 11 13  1  1  0  0  0
 11 14  1  0  0  0  0
 12 15  1  0  0  0  0
 13 16  2  0  0  0  0
 13 17  1  0  0  0  0
 14 18  1  0  0  0  0
 15 19  1  1  0  0  0
 16 20  1  0  0  0  0
 17 21  2  0  0  0  0
 18 22  1  0  0  0  0
 18 23  1  1  0  0  0
 19 24  1  0  0  0  0
 20 25  2  0  0  0  0
 22 26  1  1  0  0  0
 22 27  1  0  0  0  0
 25 28  1  0  0  0  0
 27 29  3  0  0  0  0
 28 30  1  0  0  0  0
 28 31  1  0  0  0  0
 30 32  2  0  0  0  0
 30 33  1  0  0  0  0
 33 34  1  0  0  0  0
 34 35  1  0  0  0  0
 35 36  2  0  0  0  0
 35 37  1  0  0  0  0
 38 37  1  6  0  0  0
 39 38  1  6  0  0  0
 38 40  1  0  0  0  0
 39 41  1  0  0  0  0
 39 42  1  0  0  0  0
 43 40  1  6  0  0  0
 41 44  1  0  0  0  0
 41 45  1  1  0  0  0
 42 46  1  0  0  0  0
 42 47  1  1  0  0  0
 43 48  1  0  0  0  0
 44 49  1  0  0  0  0
 44 50  1  1  0  0  0
 45 51  1  0  0  0  0
 46 52  1  0  0  0  0
 46 53  1  1  0  0  0
 47 54  1  0  0  0  0
 48 55  1  0  0  0  0
 49 56  1  0  0  0  0
 51 57  1  6  0  0  0
 52 58  1  0  0  0  0
 55 59  1  0  0  0  0
 58 60  1  0  0  0  0
 58 61  1  6  0  0  0
 60 62  1  0  0  0  0
 62 63  1  0  0  0  0
 63 64  2  0  0  0  0
 63 65  1  0  0  0  0
  6  7  1  0  0  0  0
 12 10  1  6  0  0  0
 15 18  1  0  0  0  0
 21 25  1  0  0  0  0
 22 24  1  0  0  0  0
 43 44  1  0  0  0  0
 46 51  1  0  0  0  0
 52 54  1  1  0  0  0
 55 56  1  0  0  0  0
M  END
>  <MolRegNo>
312269

>  <m>
=

>  <Value>
37

>  <Unit>
nM

>  <Type>
Ki

>  <pValue>
7.43

>  <Ligand Efficiency>
0.16

>  <Binding Efficiency>
8.32

>  <Surface Efficiency>
4.28

>  <Assay Index>
235287

>  <Assay Category>


>  <Assay Organism>
Homo sapiens

>  <Target ID>
56

>  <Target Name>
Androgen Receptor

>  <Target Organism>
Homo sapiens

>  <Target Description>
Target is a single protein chain

>  <Sequence Accession>
P10275

>  <Reference>
J Med Chem 47 (17), 4213-4230 (2004)

>  <Pubmed ID>
15293993

>  <DOI>
10.1021/jm0400045

$$$$
312270
Actelion Java MolfileCreator 1.0

 64 72  0  0  1  0  0  0  0  0999 V2000
    0.0000   -0.0000   -0.0000 O   0  0  0  0  0  0  0  0  0  0  0  0
    1.2994    0.7536   -0.0000 C   0  0  0  0  0  0  0  0  0  0  0  0
    2.5858    0.0260   -0.0000 C   0  0  0  0  0  0  0  0  0  0  0  0
    1.2864    2.2869   -0.0000 C   0  0  0  0  0  0  0  0  0  0  0  0
    3.8722    0.7796   -0.0000 C   0  0  0  0  0  0  0  0  0  0  0  0
    2.5988    3.0405   -0.0000 C   0  0  0  0  0  0  0  0  0  0  0  0
    3.8592    2.3129   -0.0000 C   0  0  0  0  0  0  0  0  0  0  0  0
    5.1585    0.0520   -0.0000 C   0  0  0  0  0  0  0  0  0  0  0  0
    5.1455    3.0535   -0.0000 C   0  0  0  0  0  0  0  0  0  0  0  0
    6.4449    0.8056   -0.0000 C   0  0  0  0  0  0  0  0  0  0  0  0
    5.1326    4.5738   -0.0000 C   0  0  0  0  0  0  0  0  0  0  0  0
    6.4319    2.3259   -0.0000 C   0  0  0  0  0  0  0  0  0  0  0  0
    4.2360    5.0806   -0.0000 C   0  0  0  0  0  0  0  0  0  0  0  0
    6.4189    5.3534   -0.0000 C   0  0  0  0  0  0  0  0  0  0  0  0
    7.7313    3.1055   -0.0000 C   0  0  0  0  0  0  0  0  0  0  0  0
    3.9891    6.5879   -0.0000 C   0  0  0  0  0  0  0  0  0  0  0  0
    3.0276    4.1320   -0.0000 C   0  0  0  0  0  0  0  0  0  0  0  0
    7.7183    4.5998   -0.0000 C   0  0  0  0  0  0  0  0  0  0  0  0
    9.1346    2.6377   -0.0000 C   0  0  0  0  0  0  0  0  0  0  0  0
    2.5598    7.1466   -0.0000 C   0  0  0  0  0  0  0  0  0  0  0  0
    1.5982    4.7038   -0.0000 C   0  0  0  0  0  0  0  0  0  0  0  0
    9.1216    5.0936   -0.0000 C   0  0  0  0  0  0  0  0  0  0  0  0
    7.7183    6.2630   -0.0000 C   0  0  0  0  0  0  0  0  0  0  0  0
   10.0312    3.8851   -0.0000 C   0  0  0  0  0  0  0  0  0  0  0  0
    1.3773    6.2240   -0.0000 C   0  0  0  0  0  0  0  0  0  0  0  0
    9.1087    6.7048   -0.0000 O   0  0  0  0  0  0  0  0  0  0  0  0
   10.4340    5.8732   -0.0000 C   0  0  0  0  0  0  0  0  0  0  0  0
    0.0520    6.9777   -0.0000 N   0  0  0  0  0  0  0  0  0  0  0  0
   11.7204    6.6268   -0.0000 C   0  0  0  0  0  0  0  0  0  0  0  0
    0.0390    8.5109   -0.0000 C   0  0  0  0  0  0  0  0  0  0  0  0
   -1.2864    6.2500   -0.0000 C   0  0  0  0  0  0  0  0  0  0  0  0
   -1.2994    9.1866   -0.0000 C   0  0  0  0  0  0  0  0  0  0  0  0
   -0.0260    9.9403   -0.0000 N   0  0  0  0  0  0  0  0  0  0  0  0
   -0.0130   11.4735   -0.0000 C   0  0  0  0  0  0  0  0  0  0  0  0
    1.4293   11.0967   -0.0000 O   0  0  0  0  0  0  0  0  0  0  0  0
    1.0525   12.5520   -0.0000 O   0  0  0  0  0  0  0  0  0  0  0  0
   -0.0260   13.6305   -0.0000 C   0  0  0  0  0  0  0  0  0  0  0  0
   -0.0390   15.1638   -0.0000 C   0  0  0  0  0  0  0  0  0  0  0  0
   -1.3643   12.9028   -0.0000 C   0  0  0  0  0  0  0  0  0  0  0  0
   -1.3773   15.9304   -0.0000 C   0  0  0  0  0  0  0  0  0  0  0  0
    1.2344   15.9044   -0.0000 C   0  0  0  0  0  0  0  0  0  0  0  0
   -2.6767   13.6695   -0.0000 C   0  0  0  0  0  0  0  0  0  0  0  0
   -2.6897   15.2157   -0.0000 C   0  0  0  0  0  0  0  0  0  0  0  0
   -1.3643   17.4767   -0.0000 C   0  0  0  0  0  0  0  0  0  0  0  0
    1.2734   17.4247   -0.0000 C   0  0  0  0  0  0  0  0  0  0  0  0
    2.6767   15.4236   -0.0000 C   0  0  0  0  0  0  0  0  0  0  0  0
   -3.9891   12.9418   -0.0000 C   0  0  0  0  0  0  0  0  0  0  0  0
   -4.0021   15.9694   -0.0000 C   0  0  0  0  0  0  0  0  0  0  0  0
   -2.7027   16.7230   -0.0000 C   0  0  0  0  0  0  0  0  0  0  0  0
   -0.0520   18.2043   -0.0000 C   0  0  0  0  0  0  0  0  0  0  0  0
    2.7027   17.8925   -0.0000 C   0  0  0  0  0  0  0  0  0  0  0  0
    1.2864   18.6331   -0.0000 C   0  0  0  0  0  0  0  0  0  0  0  0
    3.4434   16.5801   -0.0000 C   0  0  0  0  0  0  0  0  0  0  0  0
   -5.3015   13.6955   -0.0000 C   0  0  0  0  0  0  0  0  0  0  0  0
   -5.3145   15.2417   -0.0000 C   0  0  0  0  0  0  0  0  0  0  0  0
   -0.0650   19.6726   -0.0000 O   0  0  0  0  0  0  0  0  0  0  0  0
    2.6897   19.5427   -0.0000 C   0  0  0  0  0  0  0  0  0  0  0  0
   -6.6138   12.9678   -0.0000 O   0  0  0  0  0  0  0  0  0  0  0  0
    3.9761   20.3223   -0.0000 C   0  0  0  0  0  0  0  0  0  0  0  0
    1.5982   20.1924   -0.0000 C   0  0  0  0  0  0  0  0  0  0  0  0
    5.2885   19.5687   -0.0000 C   0  0  0  0  0  0  0  0  0  0  0  0
    6.5749   20.3483   -0.0000 C   0  0  0  0  0  0  0  0  0  0  0  0
    6.5619   21.8816   -0.0000 O   0  0  0  0  0  0  0  0  0  0  0  0
    7.8612   19.6206   -0.0000 O   0  0  0  0  0  0  0  0  0  0  0  0
  1  2  2  0  0  0  0
  2  3  1  0  0  0  0
  2  4  1  0  0  0  0
  3  5  2  0  0  0  0
  4  6  1  0  0  0  0
  5  7  1  0  0  0  0
  5  8  1  0  0  0  0
  7  9  2  0  0  0  0
  8 10  1  0  0  0  0
  9 11  1  0  0  0  0
  9 12  1  0  0  0  0
 11 13  1  1  0  0  0
 11 14  1  0  0  0  0
 12 15  1  0  0  0  0
 13 16  2  0  0  0  0
 13 17  1  0  0  0  0
 14 18  1  0  0  0  0
 15 19  1  1  0  0  0
 16 20  1  0  0  0  0
 17 21  2  0  0  0  0
 18 22  1  0  0  0  0
 18 23  1  1  0  0  0
 19 24  1  0  0  0  0
 20 25  2  0  0  0  0
 22 26  1  1  0  0  0
 22 27  1  0  0  0  0
 25 28  1  0  0  0  0
 27 29  3  0  0  0  0
 28 30  1  0  0  0  0
 28 31  1  0  0  0  0
 30 32  1  0  0  0  0
 32 33  1  0  0  0  0
 33 34  1  0  0  0  0
 34 35  2  0  0  0  0
 34 36  1  0  0  0  0
 37 36  1  6  0  0  0
 38 37  1  6  0  0  0
 37 39  1  0  0  0  0
 38 40  1  0  0  0  0
 38 41  1  0  0  0  0
 42 39  1  6  0  0  0
 40 43  1  0  0  0  0
 40 44  1  1  0  0  0
 41 45  1  0  0  0  0
 41 46  1  1  0  0  0
 42 47  1  0  0  0  0
 43 48  1  0  0  0  0
 43 49  1  1  0  0  0
 44 50  1  0  0  0  0
 45 51  1  0  0  0  0
 45 52  1  1  0  0  0
 46 53  1  0  0  0  0
 47 54  1  0  0  0  0
 48 55  1  0  0  0  0
 50 56  1  6  0  0  0
 51 57  1  0  0  0  0
 54 58  1  0  0  0  0
 57 59  1  0  0  0  0
 57 60  1  6  0  0  0
 59 61  1  0  0  0  0
 61 62  1  0  0  0  0
 62 63  2  0  0  0  0
 62 64  1  0  0  0  0
  6  7  1  0  0  0  0
 12 10  1  6  0  0  0
 15 18  1  0  0  0  0
 21 25  1  0  0  0  0
 22 24  1  0  0  0  0
 42 43  1  0  0  0  0
 45 50  1  0  0  0  0
 51 53  1  1  0  0  0
 54 55  1  0  0  0  0
M  END
>  <MolRegNo>
312270

>  <m>
=

>  <Value>
18

>  <Unit>
nM

>  <Type>
Ki

>  <pValue>
7.75

>  <Ligand Efficiency>
0.17

>  <Binding Efficiency>
8.81

>  <Surface Efficiency>
4.94

>  <Assay Index>
235287

>  <Assay Category>


>  <Assay Organism>
Homo sapiens

>  <Target ID>
56

>  <Target Name>
Androgen Receptor

>  <Target Organism>
Homo sapiens

>  <Target Description>
Target is a single protein chain

>  <Sequence Accession>
P10275

>  <Reference>
J Med Chem 47 (17), 4213-4230 (2004)

>  <Pubmed ID>
15293993

>  <DOI>
10.1021/jm0400045

$$$$
439461
Actelion Java MolfileCreator 1.0

 23 26  0  0  0  0  0  0  0  0999 V2000
    0.0000   -0.0000   -0.0000 O   0  0  0  0  0  0  0  0  0  0  0  0
    1.2887    0.7567   -0.0000 C   0  0  0  0  0  0  0  0  0  0  0  0
    2.5775    0.0118   -0.0000 C   0  0  0  0  0  0  0  0  0  0  0  0
    1.2769    2.2701   -0.0000 C   0  0  0  0  0  0  0  0  0  0  0  0
    3.8662    0.7803   -0.0000 C   0  0  0  0  0  0  0  0  0  0  0  0
    2.5656    3.0268   -0.0000 C   0  0  0  0  0  0  0  0  0  0  0  0
    3.8544    2.2937   -0.0000 C   0  0  0  0  0  0  0  0  0  0  0  0
    5.1549    0.0355   -0.0000 C   0  0  0  0  0  0  0  0  0  0  0  0
    5.1431    3.0504   -0.0000 C   0  0  0  0  0  0  0  0  0  0  0  0
    3.8426    3.8071   -0.0000 C   0  0  0  0  0  0  0  0  0  0  0  0
    6.4437    0.8040   -0.0000 C   0  0  0  0  0  0  0  0  0  0  0  0
    6.4319    2.3174   -0.0000 C   0  0  0  0  0  0  0  0  0  0  0  0
    5.1313    4.5638   -0.0000 C   0  0  0  0  0  0  0  0  0  0  0  0
    7.7206    3.0740   -0.0000 C   0  0  0  0  0  0  0  0  0  0  0  0
    6.4200    5.3323   -0.0000 C   0  0  0  0  0  0  0  0  0  0  0  0
    7.7088    4.5874   -0.0000 C   0  0  0  0  0  0  0  0  0  0  0  0
    9.1394    2.6129   -0.0000 C   0  0  0  0  0  0  0  0  0  0  0  0
    9.1276    5.0604   -0.0000 C   0  0  0  0  0  0  0  0  0  0  0  0
    7.6969    6.1008   -0.0000 C   0  0  0  0  0  0  0  0  0  0  0  0
   10.0143    3.8426   -0.0000 C   0  0  0  0  0  0  0  0  0  0  0  0
    9.5887    6.5028   -0.0000 C   0  0  0  0  0  0  0  0  0  0  0  0
   11.5040    3.8544   -0.0000 O   0  0  0  0  0  0  0  0  0  0  0  0
   11.0429    6.8220   -0.0000 C   0  0  0  0  0  0  0  0  0  0  0  0
  1  2  2  0  0  0  0
  2  3  1  0  0  0  0
  2  4  1  0  0  0  0
  3  5  2  0  0  0  0
  4  6  1  0  0  0  0
  5  7  1  0  0  0  0
  5  8  1  0  0  0  0
  7  9  1  0  0  0  0
  7 10  1  6  0  0  0
  8 11  1  0  0  0  0
  9 12  1  0  0  0  0
  9 13  1  6  0  0  0
 12 14  1  0  0  0  0
 13 15  1  0  0  0  0
 14 16  1  0  0  0  0
 14 17  1  6  0  0  0
 16 18  1  0  0  0  0
 16 19  1  6  0  0  0
 17 20  1  0  0  0  0
 18 21  2  0  0  0  0
 20 22  2  0  0  0  0
 21 23  1  0  0  0  0
  6  7  1  0  0  0  0
 12 11  1  1  0  0  0
 15 16  1  0  0  0  0
 18 20  1  0  0  0  0
M  END
>  <MolRegNo>
439461

>  <m>
=

>  <Value>
315

>  <Unit>
nM

>  <Type>
Ki

>  <pValue>
6.5

>  <Ligand Efficiency>
0.39

>  <Binding Efficiency>
20.81

>  <Surface Efficiency>
19.04

>  <Assay Index>
251225

>  <Assay Category>


>  <Assay Organism>


>  <Target ID>
56

>  <Target Name>
Androgen Receptor

>  <Target Organism>
Homo sapiens

>  <Target Description>
Target is a single protein chain

>  <Sequence Accession>
P10275

>  <Reference>
J Med Chem 48 (22), 6948-6955 (2005)

>  <Pubmed ID>
16250653

>  <DOI>
10.1021/jm0505056

$$$$
419995
Actelion Java MolfileCreator 1.0

 23 26  0  0  1  0  0  0  0  0999 V2000
    0.0000   -0.0000   -0.0000 O   0  0  0  0  0  0  0  0  0  0  0  0
    1.2851    0.7615   -0.0000 C   0  0  0  0  0  0  0  0  0  0  0  0
    2.5702    0.0238   -0.0000 C   0  0  0  0  0  0  0  0  0  0  0  0
    1.2732    2.2727   -0.0000 C   0  0  0  0  0  0  0  0  0  0  0  0
    3.8553    0.7853   -0.0000 C   0  0  0  0  0  0  0  0  0  0  0  0
    2.5583    3.0462   -0.0000 C   0  0  0  0  0  0  0  0  0  0  0  0
    3.8553    2.2965   -0.0000 C   0  0  0  0  0  0  0  0  0  0  0  0
    5.1404    0.0476   -0.0000 C   0  0  0  0  0  0  0  0  0  0  0  0
    5.1404    3.0581   -0.0000 C   0  0  0  0  0  0  0  0  0  0  0  0
    3.8315    3.8077   -0.0000 C   0  0  0  0  0  0  0  0  0  0  0  0
    6.4374    0.7972   -0.0000 C   0  0  0  0  0  0  0  0  0  0  0  0
    6.4255    2.3084   -0.0000 C   0  0  0  0  0  0  0  0  0  0  0  0
    5.1404    4.5693   -0.0000 C   0  0  0  0  0  0  0  0  0  0  0  0
    7.7225    3.0581   -0.0000 C   0  0  0  0  0  0  0  0  0  0  0  0
    6.4493    5.3189   -0.0000 C   0  0  0  0  0  0  0  0  0  0  0  0
    7.7225    4.5693   -0.0000 C   0  0  0  0  0  0  0  0  0  0  0  0
    9.1266    2.5940   -0.0000 C   0  0  0  0  0  0  0  0  0  0  0  0
    9.1385    5.0333   -0.0000 C   0  0  0  0  0  0  0  0  0  0  0  0
    7.6988    6.0924   -0.0000 C   0  0  0  0  0  0  0  0  0  0  0  0
   10.0072    3.8077   -0.0000 C   0  0  0  0  0  0  0  0  0  0  0  0
    9.6026    6.4731   -0.0000 C   0  0  0  0  0  0  0  0  0  0  0  0
   11.4946    3.8077   -0.0000 O   0  0  0  0  0  0  0  0  0  0  0  0
    8.5912    7.6155   -0.0000 C   0  0  0  0  0  0  0  0  0  0  0  0
  1  2  2  0  0  0  0
  2  3  1  0  0  0  0
  2  4  1  0  0  0  0
  3  5  2  0  0  0  0
  4  6  1  0  0  0  0
  5  7  1  0  0  0  0
  5  8  1  0  0  0  0
  7  9  1  0  0  0  0
  7 10  1  1  0  0  0
  8 11  1  0  0  0  0
  9 12  1  0  0  0  0
  9 13  1  1  0  0  0
 12 14  1  0  0  0  0
 13 15  1  0  0  0  0
 14 16  1  0  0  0  0
 14 17  1  1  0  0  0
 16 18  1  0  0  0  0
 16 19  1  1  0  0  0
 17 20  1  0  0  0  0
 18 21  2  0  0  0  0
 20 22  2  0  0  0  0
 21 23  1  0  0  0  0
  6  7  1  0  0  0  0
 12 11  1  6  0  0  0
 15 16  1  0  0  0  0
 18 20  1  0  0  0  0
M  END
>  <MolRegNo>
419995

>  <m>
=

>  <Value>
240

>  <Unit>
nM

>  <Type>
Ki

>  <pValue>
6.62

>  <Ligand Efficiency>
0.39

>  <Binding Efficiency>
21.19

>  <Surface Efficiency>
19.39

>  <Assay Index>
251225

>  <Assay Category>


>  <Assay Organism>


>  <Target ID>
56

>  <Target Name>
Androgen Receptor

>  <Target Organism>
Homo sapiens

>  <Target Description>
Target is a single protein chain

>  <Sequence Accession>
P10275

>  <Reference>
J Med Chem 48 (22), 6948-6955 (2005)

>  <Pubmed ID>
16250653

>  <DOI>
10.1021/jm0505056

$$$$
330232
Actelion Java MolfileCreator 1.0

 33 34  0  0  0  0  0  0  0  0999 V2000
    0.0000   -0.0000   -0.0000 O   0  0  0  0  0  0  0  0  0  0  0  0
    1.2914   -0.7464   -0.0000 C   0  0  0  0  0  0  0  0  0  0  0  0
    2.5828   -1.4928   -0.0000 C   0  0  0  0  0  0  0  0  0  0  0  0
    2.0260    0.5687   -0.0000 C   0  0  0  0  0  0  0  0  0  0  0  0
    0.5331   -2.0378   -0.0000 C   0  0  0  0  0  0  0  0  0  0  0  0
    3.8861   -0.7346   -0.0000 C   0  0  0  0  0  0  0  0  0  0  0  0
    5.1775   -1.4810   -0.0000 N   0  0  0  0  0  0  0  0  0  0  0  0
    6.4689   -0.7227   -0.0000 C   0  0  0  0  0  0  0  0  0  0  0  0
    7.7603   -1.4691   -0.0000 C   0  0  0  0  0  0  0  0  0  0  0  0
    6.4570    0.7938   -0.0000 C   0  0  0  0  0  0  0  0  0  0  0  0
    9.0517   -0.7109   -0.0000 C   0  0  0  0  0  0  0  0  0  0  0  0
    7.7484   -2.9619   -0.0000 C   0  0  0  0  0  0  0  0  0  0  0  0
    7.7484    1.5521   -0.0000 C   0  0  0  0  0  0  0  0  0  0  0  0
    9.0398    0.8056   -0.0000 C   0  0  0  0  0  0  0  0  0  0  0  0
   10.3312    1.5757   -0.0000 C   0  0  0  0  0  0  0  0  0  0  0  0
   11.6345    0.8530   -0.0000 C   0  0  0  0  0  0  0  0  0  0  0  0
    9.0161    2.3340   -0.0000 C   0  0  0  0  0  0  0  0  0  0  0  0
   11.6226    2.3577   -0.0000 C   0  0  0  0  0  0  0  0  0  0  0  0
   11.6226   -0.6398   -0.0000 C   0  0  0  0  0  0  0  0  0  0  0  0
   12.9022    1.6113   -0.0000 C   0  0  0  0  0  0  0  0  0  0  0  0
    8.9924    3.8505   -0.0000 C   0  0  0  0  0  0  0  0  0  0  0  0
   11.6108    3.8742   -0.0000 C   0  0  0  0  0  0  0  0  0  0  0  0
   12.9140   -1.3862   -0.0000 C   0  0  0  0  0  0  0  0  0  0  0  0
   14.1936    0.8886   -0.0000 C   0  0  0  0  0  0  0  0  0  0  0  0
   14.2054   -0.6161   -0.0000 C   0  0  0  0  0  0  0  0  0  0  0  0
   12.9140   -2.8790   -0.0000 C   0  0  0  0  0  0  0  0  0  0  0  0
   15.4968   -1.3625   -0.0000 N   0  0  0  0  0  0  0  0  0  0  0  0
   16.7883   -0.5805   -0.0000 C   0  0  0  0  0  0  0  0  0  0  0  0
   18.0797   -1.3151   -0.0000 C   0  0  0  0  0  0  0  0  0  0  0  0
   19.3711   -0.5450   -0.0000 C   0  0  0  0  0  0  0  0  0  0  0  0
   20.6625    0.2370   -0.0000 O   0  0  0  0  0  0  0  0  0  0  0  0
   20.1056   -1.8364   -0.0000 C   0  0  0  0  0  0  0  0  0  0  0  0
   18.6128    0.7820   -0.0000 C   0  0  0  0  0  0  0  0  0  0  0  0
  1  2  1  0  0  0  0
  2  3  1  0  0  0  0
  2  4  1  0  0  0  0
  2  5  1  0  0  0  0
  3  6  1  0  0  0  0
  6  7  1  0  0  0  0
  7  8  1  0  0  0  0
  8  9  2  0  0  0  0
  8 10  1  0  0  0  0
  9 11  1  0  0  0  0
  9 12  1  0  0  0  0
 10 13  2  0  0  0  0
 11 14  2  0  0  0  0
 14 15  1  0  0  0  0
 15 16  1  0  0  0  0
 15 17  1  0  0  0  0
 15 18  1  0  0  0  0
 16 19  2  0  0  0  0
 16 20  1  0  0  0  0
 17 21  1  0  0  0  0
 18 22  1  0  0  0  0
 19 23  1  0  0  0  0
 20 24  2  0  0  0  0
 23 25  2  0  0  0  0
 23 26  1  0  0  0  0
 25 27  1  0  0  0  0
 27 28  1  0  0  0  0
 28 29  1  0  0  0  0
 29 30  1  0  0  0  0
 30 31  1  0  0  0  0
 30 32  1  0  0  0  0
 30 33  1  0  0  0  0
 13 14  1  0  0  0  0
 24 25  1  0  0  0  0
M  END
>  <MolRegNo>
330232

>  <m>
=

>  <Value>
3380

>  <Unit>
nM

>  <Type>
Ki

>  <pValue>
5.47

>  <Ligand Efficiency>
0.23

>  <Binding Efficiency>
12.03

>  <Surface Efficiency>
8.48

>  <Assay Index>
251325

>  <Assay Category>


>  <Assay Organism>
Homo sapiens

>  <Target ID>
56

>  <Target Name>
Androgen Receptor

>  <Target Organism>
Homo sapiens

>  <Target Description>
Target is a single protein chain

>  <Sequence Accession>
P10275

>  <Reference>
Bioorg Med Chem Lett 15 (19), 4327-4331 (2005)

>  <Pubmed ID>
16019211

>  <DOI>
10.1016/j.bmcl.2005.06.044

$$$$
330240
Actelion Java MolfileCreator 1.0

 34 35  0  0  0  0  0  0  0  0999 V2000
    0.0000   -0.0000   -0.0000 O   0  0  0  0  0  0  0  0  0  0  0  0
   -0.0118    1.5145   -0.0000 C   0  0  0  0  0  0  0  0  0  0  0  0
   -1.3252    2.2718   -0.0000 C   0  0  0  0  0  0  0  0  0  0  0  0
    1.2897    2.2718   -0.0000 C   0  0  0  0  0  0  0  0  0  0  0  0
   -2.0824    0.9821   -0.0000 C   0  0  0  0  0  0  0  0  0  0  0  0
   -2.6386    3.0290   -0.0000 C   0  0  0  0  0  0  0  0  0  0  0  0
   -0.5916    3.5851   -0.0000 C   0  0  0  0  0  0  0  0  0  0  0  0
    2.5794    1.5263   -0.0000 O   0  0  0  0  0  0  0  0  0  0  0  0
    3.8691    2.2836   -0.0000 C   0  0  0  0  0  0  0  0  0  0  0  0
    5.1588    1.5382   -0.0000 C   0  0  0  0  0  0  0  0  0  0  0  0
    3.8573    3.7981   -0.0000 C   0  0  0  0  0  0  0  0  0  0  0  0
    6.4485    2.2954   -0.0000 C   0  0  0  0  0  0  0  0  0  0  0  0
    5.1470    0.0473   -0.0000 C   0  0  0  0  0  0  0  0  0  0  0  0
    5.1470    4.5554   -0.0000 C   0  0  0  0  0  0  0  0  0  0  0  0
    6.4367    3.8099   -0.0000 C   0  0  0  0  0  0  0  0  0  0  0  0
    7.7264    4.5790   -0.0000 C   0  0  0  0  0  0  0  0  0  0  0  0
    9.0279    3.8573   -0.0000 C   0  0  0  0  0  0  0  0  0  0  0  0
    9.0161    5.3599   -0.0000 C   0  0  0  0  0  0  0  0  0  0  0  0
    6.4130    5.3363   -0.0000 C   0  0  0  0  0  0  0  0  0  0  0  0
    9.0161    2.3664   -0.0000 C   0  0  0  0  0  0  0  0  0  0  0  0
   10.2939    4.6145   -0.0000 C   0  0  0  0  0  0  0  0  0  0  0  0
    9.0042    6.8744   -0.0000 C   0  0  0  0  0  0  0  0  0  0  0  0
    6.3893    6.8508   -0.0000 C   0  0  0  0  0  0  0  0  0  0  0  0
   10.3058    1.6210   -0.0000 C   0  0  0  0  0  0  0  0  0  0  0  0
   11.5836    3.8928   -0.0000 C   0  0  0  0  0  0  0  0  0  0  0  0
   11.5955    2.3901   -0.0000 C   0  0  0  0  0  0  0  0  0  0  0  0
   10.3058    0.1302   -0.0000 C   0  0  0  0  0  0  0  0  0  0  0  0
   12.8851    1.6447   -0.0000 N   0  0  0  0  0  0  0  0  0  0  0  0
   14.1748    2.4256   -0.0000 C   0  0  0  0  0  0  0  0  0  0  0  0
   15.4645    1.6920   -0.0000 C   0  0  0  0  0  0  0  0  0  0  0  0
   16.7542    2.4611   -0.0000 C   0  0  0  0  0  0  0  0  0  0  0  0
   18.0439    3.2420   -0.0000 O   0  0  0  0  0  0  0  0  0  0  0  0
   17.4878    1.1714   -0.0000 C   0  0  0  0  0  0  0  0  0  0  0  0
   15.9970    3.7863   -0.0000 C   0  0  0  0  0  0  0  0  0  0  0  0
  1  2  2  0  0  0  0
  2  3  1  0  0  0  0
  2  4  1  0  0  0  0
  3  5  1  0  0  0  0
  3  6  1  0  0  0  0
  3  7  1  0  0  0  0
  4  8  1  0  0  0  0
  8  9  1  0  0  0  0
  9 10  2  0  0  0  0
  9 11  1  0  0  0  0
 10 12  1  0  0  0  0
 10 13  1  0  0  0  0
 11 14  2  0  0  0  0
 12 15  2  0  0  0  0
 15 16  1  0  0  0  0
 16 17  1  0  0  0  0
 16 18  1  0  0  0  0
 16 19  1  0  0  0  0
 17 20  2  0  0  0  0
 17 21  1  0  0  0  0
 18 22  1  0  0  0  0
 19 23  1  0  0  0  0
 20 24  1  0  0  0  0
 21 25  2  0  0  0  0
 24 26  2  0  0  0  0
 24 27  1  0  0  0  0
 26 28  1  0  0  0  0
 28 29  1  0  0  0  0
 29 30  1  0  0  0  0
 30 31  1  0  0  0  0
 31 32  1  0  0  0  0
 31 33  1  0  0  0  0
 31 34  1  0  0  0  0
 14 15  1  0  0  0  0
 25 26  1  0  0  0  0
M  END
>  <MolRegNo>
330240

>  <m>
=

>  <Value>
2900

>  <Unit>
nM

>  <Type>
Ki

>  <pValue>
5.54

>  <Ligand Efficiency>
0.22

>  <Binding Efficiency>
11.84

>  <Surface Efficiency>
9.46

>  <Assay Index>
251325

>  <Assay Category>


>  <Assay Organism>
Homo sapiens

>  <Target ID>
56

>  <Target Name>
Androgen Receptor

>  <Target Organism>
Homo sapiens

>  <Target Description>
Target is a single protein chain

>  <Sequence Accession>
P10275

>  <Reference>
Bioorg Med Chem Lett 15 (19), 4327-4331 (2005)

>  <Pubmed ID>
16019211

>  <DOI>
10.1016/j.bmcl.2005.06.044

$$$$
330245
Actelion Java MolfileCreator 1.0

 33 34  0  0  0  0  0  0  0  0999 V2000
    0.0000   -0.0000   -0.0000 O   0  0  0  0  0  0  0  0  0  0  0  0
    1.2903    0.7576   -0.0000 C   0  0  0  0  0  0  0  0  0  0  0  0
   -1.3140    0.7576   -0.0000 C   0  0  0  0  0  0  0  0  0  0  0  0
    2.5807    0.0237   -0.0000 C   0  0  0  0  0  0  0  0  0  0  0  0
    1.2785    2.2729   -0.0000 C   0  0  0  0  0  0  0  0  0  0  0  0
   -2.6517    0.0237   -0.0000 C   0  0  0  0  0  0  0  0  0  0  0  0
    3.8710    0.7813   -0.0000 C   0  0  0  0  0  0  0  0  0  0  0  0
    2.5688   -1.4679   -0.0000 C   0  0  0  0  0  0  0  0  0  0  0  0
    2.5688    3.0305   -0.0000 C   0  0  0  0  0  0  0  0  0  0  0  0
   -2.6635   -1.4679   -0.0000 O   0  0  0  0  0  0  0  0  0  0  0  0
   -3.9657    0.7813   -0.0000 C   0  0  0  0  0  0  0  0  0  0  0  0
    3.8592    2.2966   -0.0000 C   0  0  0  0  0  0  0  0  0  0  0  0
   -3.2318    2.0953   -0.0000 C   0  0  0  0  0  0  0  0  0  0  0  0
   -4.7234   -0.5090   -0.0000 C   0  0  0  0  0  0  0  0  0  0  0  0
   -5.2797    1.5389   -0.0000 C   0  0  0  0  0  0  0  0  0  0  0  0
    5.1495    3.0660   -0.0000 C   0  0  0  0  0  0  0  0  0  0  0  0
    6.4635    2.3439   -0.0000 C   0  0  0  0  0  0  0  0  0  0  0  0
    3.8355    3.8237   -0.0000 C   0  0  0  0  0  0  0  0  0  0  0  0
    6.4399    3.8473   -0.0000 C   0  0  0  0  0  0  0  0  0  0  0  0
    6.4517    0.8523   -0.0000 C   0  0  0  0  0  0  0  0  0  0  0  0
    7.7302    3.1016   -0.0000 C   0  0  0  0  0  0  0  0  0  0  0  0
    3.8237    5.3389   -0.0000 C   0  0  0  0  0  0  0  0  0  0  0  0
    6.4280    5.3626   -0.0000 C   0  0  0  0  0  0  0  0  0  0  0  0
    7.7420    0.1184   -0.0000 C   0  0  0  0  0  0  0  0  0  0  0  0
    9.0206    2.3794   -0.0000 C   0  0  0  0  0  0  0  0  0  0  0  0
    9.0324    0.8878   -0.0000 C   0  0  0  0  0  0  0  0  0  0  0  0
    7.7302   -1.3732   -0.0000 C   0  0  0  0  0  0  0  0  0  0  0  0
   10.3227    0.1539   -0.0000 N   0  0  0  0  0  0  0  0  0  0  0  0
   11.6131    0.9352   -0.0000 C   0  0  0  0  0  0  0  0  0  0  0  0
   12.9034    0.1894   -0.0000 C   0  0  0  0  0  0  0  0  0  0  0  0
   12.9153   -1.3022   -0.0000 O   0  0  0  0  0  0  0  0  0  0  0  0
   14.1938    0.9589   -0.0000 C   0  0  0  0  0  0  0  0  0  0  0  0
   15.5078    0.2368   -0.0000 O   0  0  0  0  0  0  0  0  0  0  0  0
  1  2  1  0  0  0  0
  1  3  1  0  0  0  0
  2  4  2  0  0  0  0
  2  5  1  0  0  0  0
  3  6  1  0  0  0  0
  4  7  1  0  0  0  0
  4  8  1  0  0  0  0
  5  9  2  0  0  0  0
  6 10  1  0  0  0  0
  6 11  1  0  0  0  0
  7 12  2  0  0  0  0
 11 13  1  0  0  0  0
 11 14  1  0  0  0  0
 11 15  1  0  0  0  0
 12 16  1  0  0  0  0
 16 17  1  0  0  0  0
 16 18  1  0  0  0  0
 16 19  1  0  0  0  0
 17 20  2  0  0  0  0
 17 21  1  0  0  0  0
 18 22  1  0  0  0  0
 19 23  1  0  0  0  0
 20 24  1  0  0  0  0
 21 25  2  0  0  0  0
 24 26  2  0  0  0  0
 24 27  1  0  0  0  0
 26 28  1  0  0  0  0
 28 29  1  0  0  0  0
 29 30  1  0  0  0  0
 30 31  1  0  0  0  0
 30 32  1  0  0  0  0
 32 33  1  0  0  0  0
  9 12  1  0  0  0  0
 25 26  1  0  0  0  0
M  END
>  <MolRegNo>
330245

>  <m>
=

>  <Value>
1508

>  <Unit>
nM

>  <Type>
Ki

>  <pValue>
5.82

>  <Ligand Efficiency>
0.24

>  <Binding Efficiency>
12.72

>  <Surface Efficiency>
7.1

>  <Assay Index>
251325

>  <Assay Category>


>  <Assay Organism>
Homo sapiens

>  <Target ID>
56

>  <Target Name>
Androgen Receptor

>  <Target Organism>
Homo sapiens

>  <Target Description>
Target is a single protein chain

>  <Sequence Accession>
P10275

>  <Reference>
Bioorg Med Chem Lett 15 (19), 4327-4331 (2005)

>  <Pubmed ID>
16019211

>  <DOI>
10.1016/j.bmcl.2005.06.044

$$$$
330246
Actelion Java MolfileCreator 1.0

 33 34  0  0  0  0  0  0  0  0999 V2000
    0.0000   -0.0000   -0.0000 O   0  0  0  0  0  0  0  0  0  0  0  0
   -0.0118    1.5161   -0.0000 C   0  0  0  0  0  0  0  0  0  0  0  0
   -1.3266    2.2742   -0.0000 C   0  0  0  0  0  0  0  0  0  0  0  0
    1.3029    2.2742   -0.0000 C   0  0  0  0  0  0  0  0  0  0  0  0
   -0.5922    3.5890   -0.0000 C   0  0  0  0  0  0  0  0  0  0  0  0
   -2.0847    0.9831   -0.0000 C   0  0  0  0  0  0  0  0  0  0  0  0
   -2.6414    3.0323   -0.0000 C   0  0  0  0  0  0  0  0  0  0  0  0
    2.5940    1.5398   -0.0000 O   0  0  0  0  0  0  0  0  0  0  0  0
    3.8851    2.2979   -0.0000 C   0  0  0  0  0  0  0  0  0  0  0  0
    5.1762    1.5635   -0.0000 C   0  0  0  0  0  0  0  0  0  0  0  0
    3.8733    3.8141   -0.0000 C   0  0  0  0  0  0  0  0  0  0  0  0
    6.4673    2.3216   -0.0000 C   0  0  0  0  0  0  0  0  0  0  0  0
    5.1644    0.0711   -0.0000 C   0  0  0  0  0  0  0  0  0  0  0  0
    5.1644    4.5721   -0.0000 C   0  0  0  0  0  0  0  0  0  0  0  0
    6.4555    3.8378   -0.0000 C   0  0  0  0  0  0  0  0  0  0  0  0
    7.7466    4.5958   -0.0000 C   0  0  0  0  0  0  0  0  0  0  0  0
    9.0614    3.8733   -0.0000 C   0  0  0  0  0  0  0  0  0  0  0  0
    6.4318    5.3539   -0.0000 C   0  0  0  0  0  0  0  0  0  0  0  0
    9.0377    5.3776   -0.0000 C   0  0  0  0  0  0  0  0  0  0  0  0
    9.0495    2.3808   -0.0000 C   0  0  0  0  0  0  0  0  0  0  0  0
   10.3288    4.6314   -0.0000 C   0  0  0  0  0  0  0  0  0  0  0  0
    6.4199    6.8701   -0.0000 C   0  0  0  0  0  0  0  0  0  0  0  0
    9.0258    6.8937   -0.0000 C   0  0  0  0  0  0  0  0  0  0  0  0
   10.3406    1.6464   -0.0000 C   0  0  0  0  0  0  0  0  0  0  0  0
   11.6199    3.9088   -0.0000 C   0  0  0  0  0  0  0  0  0  0  0  0
   11.6317    2.4045   -0.0000 C   0  0  0  0  0  0  0  0  0  0  0  0
   10.3288    0.1540   -0.0000 C   0  0  0  0  0  0  0  0  0  0  0  0
   12.9228    1.6701   -0.0000 N   0  0  0  0  0  0  0  0  0  0  0  0
   14.2139    2.4519   -0.0000 C   0  0  0  0  0  0  0  0  0  0  0  0
   15.5050    1.7175   -0.0000 C   0  0  0  0  0  0  0  0  0  0  0  0
   15.5168    0.2251   -0.0000 O   0  0  0  0  0  0  0  0  0  0  0  0
   16.7961    2.4756   -0.0000 C   0  0  0  0  0  0  0  0  0  0  0  0
   18.1109    1.7530   -0.0000 O   0  0  0  0  0  0  0  0  0  0  0  0
  1  2  2  0  0  0  0
  2  3  1  0  0  0  0
  2  4  1  0  0  0  0
  3  5  1  0  0  0  0
  3  6  1  0  0  0  0
  3  7  1  0  0  0  0
  4  8  1  0  0  0  0
  8  9  1  0  0  0  0
  9 10  2  0  0  0  0
  9 11  1  0  0  0  0
 10 12  1  0  0  0  0
 10 13  1  0  0  0  0
 11 14  2  0  0  0  0
 12 15  2  0  0  0  0
 15 16  1  0  0  0  0
 16 17  1  0  0  0  0
 16 18  1  0  0  0  0
 16 19  1  0  0  0  0
 17 20  2  0  0  0  0
 17 21  1  0  0  0  0
 18 22  1  0  0  0  0
 19 23  1  0  0  0  0
 20 24  1  0  0  0  0
 21 25  2  0  0  0  0
 24 26  2  0  0  0  0
 24 27  1  0  0  0  0
 26 28  1  0  0  0  0
 28 29  1  0  0  0  0
 29 30  1  0  0  0  0
 30 31  1  0  0  0  0
 30 32  1  0  0  0  0
 32 33  1  0  0  0  0
 14 15  1  0  0  0  0
 25 26  1  0  0  0  0
M  END
>  <MolRegNo>
330246

>  <m>
=

>  <Value>
1170

>  <Unit>
nM

>  <Type>
Ki

>  <pValue>
5.93

>  <Ligand Efficiency>
0.25

>  <Binding Efficiency>
13.02

>  <Surface Efficiency>
7.53

>  <Assay Index>
251325

>  <Assay Category>


>  <Assay Organism>
Homo sapiens

>  <Target ID>
56

>  <Target Name>
Androgen Receptor

>  <Target Organism>
Homo sapiens

>  <Target Description>
Target is a single protein chain

>  <Sequence Accession>
P10275

>  <Reference>
Bioorg Med Chem Lett 15 (19), 4327-4331 (2005)

>  <Pubmed ID>
16019211

>  <DOI>
10.1016/j.bmcl.2005.06.044

$$$$
360121
Actelion Java MolfileCreator 1.0

 26 27  0  0  0  0  0  0  0  0999 V2000
    0.0000   -0.0000   -0.0000 F   0  0  0  0  0  0  0  0  0  0  0  0
   -0.0119   -1.4934   -0.0000 C   0  0  0  0  0  0  0  0  0  0  0  0
    1.4816   -1.4816   -0.0000 F   0  0  0  0  0  0  0  0  0  0  0  0
   -1.5290   -1.4816   -0.0000 F   0  0  0  0  0  0  0  0  0  0  0  0
   -0.0237   -2.9869   -0.0000 C   0  0  0  0  0  0  0  0  0  0  0  0
    1.2682   -3.7336   -0.0000 C   0  0  0  0  0  0  0  0  0  0  0  0
   -1.3393   -3.7336   -0.0000 C   0  0  0  0  0  0  0  0  0  0  0  0
    1.2564   -5.2270   -0.0000 C   0  0  0  0  0  0  0  0  0  0  0  0
    2.5602   -2.9750   -0.0000 C   0  0  0  0  0  0  0  0  0  0  0  0
   -1.3512   -5.2270   -0.0000 C   0  0  0  0  0  0  0  0  0  0  0  0
   -0.0593   -5.9737   -0.0000 N   0  0  0  0  0  0  0  0  0  0  0  0
    2.5483   -5.9737   -0.0000 C   0  0  0  0  0  0  0  0  0  0  0  0
    3.8521   -3.7217   -0.0000 C   0  0  0  0  0  0  0  0  0  0  0  0
   -2.6668   -5.9737   -0.0000 O   0  0  0  0  0  0  0  0  0  0  0  0
    3.8403   -5.2152   -0.0000 C   0  0  0  0  0  0  0  0  0  0  0  0
    5.1440   -2.9632   -0.0000 N   0  0  0  0  0  0  0  0  0  0  0  0
    6.4360   -3.7099   -0.0000 C   0  0  0  0  0  0  0  0  0  0  0  0
    5.1322   -1.4460   -0.0000 C   0  0  0  0  0  0  0  0  0  0  0  0
    6.4241   -5.2033   -0.0000 C   0  0  0  0  0  0  0  0  0  0  0  0
    6.4241   -0.6756   -0.0000 C   0  0  0  0  0  0  0  0  0  0  0  0
    6.4123   -6.6967   -0.0000 F   0  0  0  0  0  0  0  0  0  0  0  0
    7.9176   -5.1915   -0.0000 F   0  0  0  0  0  0  0  0  0  0  0  0
    4.9070   -5.1915   -0.0000 F   0  0  0  0  0  0  0  0  0  0  0  0
    7.1708   -1.9675   -0.0000 F   0  0  0  0  0  0  0  0  0  0  0  0
    5.6656    0.6400   -0.0000 F   0  0  0  0  0  0  0  0  0  0  0  0
    7.7161    0.0830   -0.0000 F   0  0  0  0  0  0  0  0  0  0  0  0
  1  2  1  0  0  0  0
  2  3  1  0  0  0  0
  2  4  1  0  0  0  0
  2  5  1  0  0  0  0
  5  6  1  0  0  0  0
  5  7  2  0  0  0  0
  6  8  2  0  0  0  0
  6  9  1  0  0  0  0
  7 10  1  0  0  0  0
  8 11  1  0  0  0  0
  8 12  1  0  0  0  0
  9 13  2  0  0  0  0
 10 14  2  0  0  0  0
 12 15  2  0  0  0  0
 13 16  1  0  0  0  0
 16 17  1  0  0  0  0
 16 18  1  0  0  0  0
 17 19  1  0  0  0  0
 18 20  1  0  0  0  0
 19 21  1  0  0  0  0
 19 22  1  0  0  0  0
 19 23  1  0  0  0  0
 20 24  1  0  0  0  0
 20 25  1  0  0  0  0
 20 26  1  0  0  0  0
 10 11  1  0  0  0  0
 13 15  1  0  0  0  0
M  END
>  <MolRegNo>
360121

>  <m>
=

>  <Value>
1.5

>  <Unit>
nM

>  <Type>
Ki

>  <pValue>
8.82

>  <Ligand Efficiency>
0.46

>  <Binding Efficiency>
22.5

>  <Surface Efficiency>
24.44

>  <Assay Index>
269865

>  <Assay Category>


>  <Assay Organism>
Homo sapiens

>  <Target ID>
56

>  <Target Name>
Androgen Receptor

>  <Target Organism>
Homo sapiens

>  <Target Description>
Target is a single protein chain

>  <Sequence Accession>
P10275

>  <Reference>
J Med Chem 49 (21), 6143-6146 (2006)

>  <Pubmed ID>
17034117

>  <DOI>
10.1021/jm060792t

$$$$
360247
Actelion Java MolfileCreator 1.0

 25 27  0  0  0  0  0  0  0  0999 V2000
    0.0000   -0.0000   -0.0000 F   0  0  0  0  0  0  0  0  0  0  0  0
    0.0000   -1.4979   -0.0000 C   0  0  0  0  0  0  0  0  0  0  0  0
    1.4979   -1.4860   -0.0000 F   0  0  0  0  0  0  0  0  0  0  0  0
   -1.5217   -1.4979   -0.0000 F   0  0  0  0  0  0  0  0  0  0  0  0
   -0.0119   -2.9958   -0.0000 C   0  0  0  0  0  0  0  0  0  0  0  0
    1.2720   -3.7328   -0.0000 C   0  0  0  0  0  0  0  0  0  0  0  0
   -1.3314   -3.7328   -0.0000 C   0  0  0  0  0  0  0  0  0  0  0  0
    1.2601   -5.2307   -0.0000 C   0  0  0  0  0  0  0  0  0  0  0  0
    2.5678   -2.9720   -0.0000 C   0  0  0  0  0  0  0  0  0  0  0  0
   -1.3433   -5.2307   -0.0000 C   0  0  0  0  0  0  0  0  0  0  0  0
   -0.0476   -5.9796   -0.0000 N   0  0  0  0  0  0  0  0  0  0  0  0
    2.5559   -5.9677   -0.0000 C   0  0  0  0  0  0  0  0  0  0  0  0
    3.8636   -3.7090   -0.0000 C   0  0  0  0  0  0  0  0  0  0  0  0
   -2.6629   -5.9677   -0.0000 O   0  0  0  0  0  0  0  0  0  0  0  0
    3.8517   -5.2069   -0.0000 C   0  0  0  0  0  0  0  0  0  0  0  0
    5.1475   -2.9363   -0.0000 N   0  0  0  0  0  0  0  0  0  0  0  0
    6.4433   -3.6734   -0.0000 C   0  0  0  0  0  0  0  0  0  0  0  0
    5.1356   -1.4147   -0.0000 C   0  0  0  0  0  0  0  0  0  0  0  0
    6.4314   -5.1713   -0.0000 C   0  0  0  0  0  0  0  0  0  0  0  0
    6.4195   -0.6419   -0.0000 C   0  0  0  0  0  0  0  0  0  0  0  0
    6.4076   -6.6572   -0.0000 F   0  0  0  0  0  0  0  0  0  0  0  0
    7.9293   -5.1594   -0.0000 F   0  0  0  0  0  0  0  0  0  0  0  0
    4.9097   -5.1594   -0.0000 F   0  0  0  0  0  0  0  0  0  0  0  0
    7.9055   -0.6301   -0.0000 C   0  0  0  0  0  0  0  0  0  0  0  0
    7.1447    0.6657   -0.0000 C   0  0  0  0  0  0  0  0  0  0  0  0
  1  2  1  0  0  0  0
  2  3  1  0  0  0  0
  2  4  1  0  0  0  0
  2  5  1  0  0  0  0
  5  6  1  0  0  0  0
  5  7  2  0  0  0  0
  6  8  1  0  0  0  0
  6  9  2  0  0  0  0
  7 10  1  0  0  0  0
  8 11  1  0  0  0  0
  8 12  2  0  0  0  0
  9 13  1  0  0  0  0
 10 14  1  0  0  0  0
 12 15  1  0  0  0  0
 13 16  1  0  0  0  0
 16 17  1  0  0  0  0
 16 18  1  0  0  0  0
 17 19  1  0  0  0  0
 18 20  1  0  0  0  0
 19 21  1  0  0  0  0
 19 22  1  0  0  0  0
 19 23  1  0  0  0  0
 20 24  1  0  0  0  0
 20 25  1  0  0  0  0
 10 11  2  0  0  0  0
 13 15  2  0  0  0  0
 24 25  1  0  0  0  0
M  END
>  <MolRegNo>
360247

>  <m>
=

>  <Value>
7.1

>  <Unit>
nM

>  <Type>
Ki

>  <pValue>
8.15

>  <Ligand Efficiency>
0.45

>  <Binding Efficiency>
22.37

>  <Surface Efficiency>
22.41

>  <Assay Index>
269865

>  <Assay Category>


>  <Assay Organism>
Homo sapiens

>  <Target ID>
56

>  <Target Name>
Androgen Receptor

>  <Target Organism>
Homo sapiens

>  <Target Description>
Target is a single protein chain

>  <Sequence Accession>
P10275

>  <Reference>
J Med Chem 49 (21), 6143-6146 (2006)

>  <Pubmed ID>
17034117

>  <DOI>
10.1021/jm060792t

$$$$
360240
Actelion Java MolfileCreator 1.0

 23 24  0  0  0  0  0  0  0  0999 V2000
    0.0000   -0.0000   -0.0000 F   0  0  0  0  0  0  0  0  0  0  0  0
    0.0000   -1.4972   -0.0000 C   0  0  0  0  0  0  0  0  0  0  0  0
    1.4972   -1.4853   -0.0000 F   0  0  0  0  0  0  0  0  0  0  0  0
   -1.5210   -1.4972   -0.0000 F   0  0  0  0  0  0  0  0  0  0  0  0
   -0.0119   -2.9944   -0.0000 C   0  0  0  0  0  0  0  0  0  0  0  0
    1.2714   -3.7312   -0.0000 C   0  0  0  0  0  0  0  0  0  0  0  0
   -1.3309   -3.7312   -0.0000 C   0  0  0  0  0  0  0  0  0  0  0  0
    1.2596   -5.2284   -0.0000 C   0  0  0  0  0  0  0  0  0  0  0  0
    2.5667   -2.9707   -0.0000 C   0  0  0  0  0  0  0  0  0  0  0  0
   -1.3427   -5.2284   -0.0000 C   0  0  0  0  0  0  0  0  0  0  0  0
   -0.0475   -5.9770   -0.0000 N   0  0  0  0  0  0  0  0  0  0  0  0
    2.5548   -5.9651   -0.0000 C   0  0  0  0  0  0  0  0  0  0  0  0
    3.8619   -3.7074   -0.0000 C   0  0  0  0  0  0  0  0  0  0  0  0
   -2.6617   -5.9651   -0.0000 O   0  0  0  0  0  0  0  0  0  0  0  0
    3.8500   -5.2046   -0.0000 C   0  0  0  0  0  0  0  0  0  0  0  0
    5.1452   -2.9350   -0.0000 N   0  0  0  0  0  0  0  0  0  0  0  0
    6.4404   -3.6717   -0.0000 C   0  0  0  0  0  0  0  0  0  0  0  0
    5.1333   -1.4140   -0.0000 C   0  0  0  0  0  0  0  0  0  0  0  0
    6.4285   -5.1690   -0.0000 C   0  0  0  0  0  0  0  0  0  0  0  0
    6.4166   -0.6417   -0.0000 C   0  0  0  0  0  0  0  0  0  0  0  0
    6.4047   -6.6543   -0.0000 F   0  0  0  0  0  0  0  0  0  0  0  0
    7.9257   -5.1571   -0.0000 F   0  0  0  0  0  0  0  0  0  0  0  0
    4.9075   -5.1571   -0.0000 F   0  0  0  0  0  0  0  0  0  0  0  0
  1  2  1  0  0  0  0
  2  3  1  0  0  0  0
  2  4  1  0  0  0  0
  2  5  1  0  0  0  0
  5  6  1  0  0  0  0
  5  7  2  0  0  0  0
  6  8  1  0  0  0  0
  6  9  2  0  0  0  0
  7 10  1  0  0  0  0
  8 11  1  0  0  0  0
  8 12  2  0  0  0  0
  9 13  1  0  0  0  0
 10 14  1  0  0  0  0
 12 15  1  0  0  0  0
 13 16  1  0  0  0  0
 16 17  1  0  0  0  0
 16 18  1  0  0  0  0
 17 19  1  0  0  0  0
 18 20  1  0  0  0  0
 19 21  1  0  0  0  0
 19 22  1  0  0  0  0
 19 23  1  0  0  0  0
 10 11  2  0  0  0  0
 13 15  2  0  0  0  0
M  END
>  <MolRegNo>
360240

>  <m>
=

>  <Value>
7.1

>  <Unit>
nM

>  <Type>
Ki

>  <pValue>
8.15

>  <Ligand Efficiency>
0.48

>  <Binding Efficiency>
24.09

>  <Surface Efficiency>
22.41

>  <Assay Index>
269865

>  <Assay Category>


>  <Assay Organism>
Homo sapiens

>  <Target ID>
56

>  <Target Name>
Androgen Receptor

>  <Target Organism>
Homo sapiens

>  <Target Description>
Target is a single protein chain

>  <Sequence Accession>
P10275

>  <Reference>
J Med Chem 49 (21), 6143-6146 (2006)

>  <Pubmed ID>
17034117

>  <DOI>
10.1021/jm060792t

$$$$
360232
Actelion Java MolfileCreator 1.0

 24 27  0  0  0  0  0  0  0  0999 V2000
    0.0000   -0.0000   -0.0000 F   0  0  0  0  0  0  0  0  0  0  0  0
    0.0000   -1.4979   -0.0000 C   0  0  0  0  0  0  0  0  0  0  0  0
    1.4979   -1.4860   -0.0000 F   0  0  0  0  0  0  0  0  0  0  0  0
   -1.5217   -1.4979   -0.0000 F   0  0  0  0  0  0  0  0  0  0  0  0
   -0.0119   -2.9958   -0.0000 C   0  0  0  0  0  0  0  0  0  0  0  0
    1.2720   -3.7329   -0.0000 C   0  0  0  0  0  0  0  0  0  0  0  0
   -1.3315   -3.7329   -0.0000 C   0  0  0  0  0  0  0  0  0  0  0  0
    1.2601   -5.2308   -0.0000 C   0  0  0  0  0  0  0  0  0  0  0  0
    2.5678   -2.9720   -0.0000 C   0  0  0  0  0  0  0  0  0  0  0  0
   -1.3434   -5.2308   -0.0000 C   0  0  0  0  0  0  0  0  0  0  0  0
   -0.0476   -5.9798   -0.0000 N   0  0  0  0  0  0  0  0  0  0  0  0
    2.5560   -5.9679   -0.0000 C   0  0  0  0  0  0  0  0  0  0  0  0
    3.8637   -3.7091   -0.0000 C   0  0  0  0  0  0  0  0  0  0  0  0
   -2.6630   -5.9679   -0.0000 O   0  0  0  0  0  0  0  0  0  0  0  0
    3.8518   -5.2070   -0.0000 C   0  0  0  0  0  0  0  0  0  0  0  0
    5.1476   -2.9364   -0.0000 N   0  0  0  0  0  0  0  0  0  0  0  0
    6.4434   -3.6734   -0.0000 C   0  0  0  0  0  0  0  0  0  0  0  0
    5.1357   -1.4147   -0.0000 C   0  0  0  0  0  0  0  0  0  0  0  0
    7.7273   -2.9007   -0.0000 C   0  0  0  0  0  0  0  0  0  0  0  0
    6.4196   -0.6420   -0.0000 C   0  0  0  0  0  0  0  0  0  0  0  0
    9.2133   -2.8888   -0.0000 C   0  0  0  0  0  0  0  0  0  0  0  0
    8.4644   -1.5811   -0.0000 C   0  0  0  0  0  0  0  0  0  0  0  0
    7.9056   -0.6301   -0.0000 C   0  0  0  0  0  0  0  0  0  0  0  0
    7.1448    0.6657   -0.0000 C   0  0  0  0  0  0  0  0  0  0  0  0
  1  2  1  0  0  0  0
  2  3  1  0  0  0  0
  2  4  1  0  0  0  0
  2  5  1  0  0  0  0
  5  6  1  0  0  0  0
  5  7  2  0  0  0  0
  6  8  1  0  0  0  0
  6  9  2  0  0  0  0
  7 10  1  0  0  0  0
  8 11  1  0  0  0  0
  8 12  2  0  0  0  0
  9 13  1  0  0  0  0
 10 14  1  0  0  0  0
 12 15  1  0  0  0  0
 13 16  1  0  0  0  0
 16 17  1  0  0  0  0
 16 18  1  0  0  0  0
 17 19  1  0  0  0  0
 18 20  1  0  0  0  0
 19 21  1  0  0  0  0
 19 22  1  0  0  0  0
 20 23  1  0  0  0  0
 20 24  1  0  0  0  0
 10 11  2  0  0  0  0
 13 15  2  0  0  0  0
 21 22  1  0  0  0  0
 23 24  1  0  0  0  0
M  END
>  <MolRegNo>
360232

>  <m>
=

>  <Value>
6.3

>  <Unit>
nM

>  <Type>
Ki

>  <pValue>
8.2

>  <Ligand Efficiency>
0.47

>  <Binding Efficiency>
24.38

>  <Surface Efficiency>
22.55

>  <Assay Index>
269865

>  <Assay Category>


>  <Assay Organism>
Homo sapiens

>  <Target ID>
56

>  <Target Name>
Androgen Receptor

>  <Target Organism>
Homo sapiens

>  <Target Description>
Target is a single protein chain

>  <Sequence Accession>
P10275

>  <Reference>
J Med Chem 49 (21), 6143-6146 (2006)

>  <Pubmed ID>
17034117

>  <DOI>
10.1021/jm060792t

$$$$
360223
Actelion Java MolfileCreator 1.0

 21 22  0  0  0  0  0  0  0  0999 V2000
    0.0000   -0.0000   -0.0000 F   0  0  0  0  0  0  0  0  0  0  0  0
    0.0000   -1.4980   -0.0000 C   0  0  0  0  0  0  0  0  0  0  0  0
    1.4980   -1.4861   -0.0000 F   0  0  0  0  0  0  0  0  0  0  0  0
   -1.5217   -1.4980   -0.0000 F   0  0  0  0  0  0  0  0  0  0  0  0
   -0.0119   -2.9959   -0.0000 C   0  0  0  0  0  0  0  0  0  0  0  0
    1.2721   -3.7330   -0.0000 C   0  0  0  0  0  0  0  0  0  0  0  0
   -1.3315   -3.7330   -0.0000 C   0  0  0  0  0  0  0  0  0  0  0  0
    1.2602   -5.2309   -0.0000 C   0  0  0  0  0  0  0  0  0  0  0  0
    2.5560   -2.9721   -0.0000 C   0  0  0  0  0  0  0  0  0  0  0  0
   -1.3434   -5.2309   -0.0000 C   0  0  0  0  0  0  0  0  0  0  0  0
   -0.0476   -5.9799   -0.0000 N   0  0  0  0  0  0  0  0  0  0  0  0
    2.5560   -5.9680   -0.0000 C   0  0  0  0  0  0  0  0  0  0  0  0
    3.8519   -3.7092   -0.0000 C   0  0  0  0  0  0  0  0  0  0  0  0
   -2.6630   -5.9680   -0.0000 O   0  0  0  0  0  0  0  0  0  0  0  0
    3.8519   -5.2072   -0.0000 C   0  0  0  0  0  0  0  0  0  0  0  0
    5.1358   -2.9365   -0.0000 N   0  0  0  0  0  0  0  0  0  0  0  0
    6.4317   -3.6735   -0.0000 C   0  0  0  0  0  0  0  0  0  0  0  0
    5.1239   -1.4147   -0.0000 C   0  0  0  0  0  0  0  0  0  0  0  0
    7.7156   -2.9008   -0.0000 C   0  0  0  0  0  0  0  0  0  0  0  0
    6.4198   -5.1715   -0.0000 C   0  0  0  0  0  0  0  0  0  0  0  0
    6.4079   -0.6420   -0.0000 C   0  0  0  0  0  0  0  0  0  0  0  0
  1  2  1  0  0  0  0
  2  3  1  0  0  0  0
  2  4  1  0  0  0  0
  2  5  1  0  0  0  0
  5  6  1  0  0  0  0
  5  7  2  0  0  0  0
  6  8  1  0  0  0  0
  6  9  2  0  0  0  0
  7 10  1  0  0  0  0
  8 11  1  0  0  0  0
  8 12  2  0  0  0  0
  9 13  1  0  0  0  0
 10 14  1  0  0  0  0
 12 15  1  0  0  0  0
 13 16  1  0  0  0  0
 16 17  1  0  0  0  0
 16 18  1  0  0  0  0
 17 19  1  0  0  0  0
 17 20  1  0  0  0  0
 18 21  1  0  0  0  0
 10 11  2  0  0  0  0
 13 15  2  0  0  0  0
M  END
>  <MolRegNo>
360223

>  <m>
=

>  <Value>
7.4

>  <Unit>
nM

>  <Type>
Ki

>  <pValue>
8.13

>  <Ligand Efficiency>
0.53

>  <Binding Efficiency>
27.26

>  <Surface Efficiency>
22.36

>  <Assay Index>
269865

>  <Assay Category>


>  <Assay Organism>
Homo sapiens

>  <Target ID>
56

>  <Target Name>
Androgen Receptor

>  <Target Organism>
Homo sapiens

>  <Target Description>
Target is a single protein chain

>  <Sequence Accession>
P10275

>  <Reference>
J Med Chem 49 (21), 6143-6146 (2006)

>  <Pubmed ID>
17034117

>  <DOI>
10.1021/jm060792t

$$$$
396161
Actelion Java MolfileCreator 1.0

 22 23  0  0  0  0  0  0  0  0999 V2000
    0.0000   -0.0000   -0.0000 F   0  0  0  0  0  0  0  0  0  0  0  0
    0.0000   -1.5007   -0.0000 C   0  0  0  0  0  0  0  0  0  0  0  0
    1.4888   -1.4769   -0.0000 F   0  0  0  0  0  0  0  0  0  0  0  0
   -1.5126   -1.5007   -0.0000 F   0  0  0  0  0  0  0  0  0  0  0  0
   -0.0119   -2.9895   -0.0000 C   0  0  0  0  0  0  0  0  0  0  0  0
    1.2863   -3.7280   -0.0000 C   0  0  0  0  0  0  0  0  0  0  0  0
   -1.3221   -3.7280   -0.0000 C   0  0  0  0  0  0  0  0  0  0  0  0
    1.2744   -5.2287   -0.0000 C   0  0  0  0  0  0  0  0  0  0  0  0
    2.5727   -2.9657   -0.0000 C   0  0  0  0  0  0  0  0  0  0  0  0
   -1.3340   -5.2287   -0.0000 C   0  0  0  0  0  0  0  0  0  0  0  0
   -0.0357   -5.9790   -0.0000 N   0  0  0  0  0  0  0  0  0  0  0  0
    2.5727   -5.9671   -0.0000 C   0  0  0  0  0  0  0  0  0  0  0  0
    3.8709   -3.6922   -0.0000 C   0  0  0  0  0  0  0  0  0  0  0  0
   -2.6560   -5.9671   -0.0000 O   0  0  0  0  0  0  0  0  0  0  0  0
    3.8709   -5.1929   -0.0000 C   0  0  0  0  0  0  0  0  0  0  0  0
    5.1572   -2.9181   -0.0000 N   0  0  0  0  0  0  0  0  0  0  0  0
    5.1334   -1.4054   -0.0000 C   0  0  0  0  0  0  0  0  0  0  0  0
    6.4554   -3.6565   -0.0000 C   0  0  0  0  0  0  0  0  0  0  0  0
    6.4197   -0.6313   -0.0000 C   0  0  0  0  0  0  0  0  0  0  0  0
    7.7418   -2.8823   -0.0000 C   0  0  0  0  0  0  0  0  0  0  0  0
    7.7180   -1.3697   -0.0000 C   0  0  0  0  0  0  0  0  0  0  0  0
    9.0400   -3.6208   -0.0000 C   0  0  0  0  0  0  0  0  0  0  0  0
  1  2  1  0  0  0  0
  2  3  1  0  0  0  0
  2  4  1  0  0  0  0
  2  5  1  0  0  0  0
  5  6  1  0  0  0  0
  5  7  2  0  0  0  0
  6  8  2  0  0  0  0
  6  9  1  0  0  0  0
  7 10  1  0  0  0  0
  8 11  1  0  0  0  0
  8 12  1  0  0  0  0
  9 13  2  0  0  0  0
 10 14  2  0  0  0  0
 12 15  2  0  0  0  0
 13 16  1  0  0  0  0
 16 17  1  0  0  0  0
 16 18  1  0  0  0  0
 17 19  1  0  0  0  0
 18 20  1  0  0  0  0
 19 21  1  0  0  0  0
 20 22  1  0  0  0  0
 10 11  1  0  0  0  0
 13 15  1  0  0  0  0
M  END
>  <MolRegNo>
396161

>  <m>
=

>  <Value>
64

>  <Unit>
nM

>  <Type>
Ki

>  <pValue>
7.19

>  <Ligand Efficiency>
0.45

>  <Binding Efficiency>
23.03

>  <Surface Efficiency>
19.93

>  <Assay Index>
269865

>  <Assay Category>


>  <Assay Organism>
Homo sapiens

>  <Target ID>
56

>  <Target Name>
Androgen Receptor

>  <Target Organism>
Homo sapiens

>  <Target Description>
Target is a single protein chain

>  <Sequence Accession>
P10275

>  <Reference>
J Med Chem 49 (21), 6143-6146 (2006)

>  <Pubmed ID>
17034117

>  <DOI>
10.1021/jm060792t

$$$$
360120
Actelion Java MolfileCreator 1.0

 20 21  0  0  0  0  0  0  0  0999 V2000
    0.0000   -0.0000   -0.0000 F   0  0  0  0  0  0  0  0  0  0  0  0
    0.0000   -1.4974   -0.0000 C   0  0  0  0  0  0  0  0  0  0  0  0
    1.4974   -1.4855   -0.0000 F   0  0  0  0  0  0  0  0  0  0  0  0
   -1.5211   -1.4974   -0.0000 F   0  0  0  0  0  0  0  0  0  0  0  0
   -0.0119   -2.9947   -0.0000 C   0  0  0  0  0  0  0  0  0  0  0  0
    1.2716   -3.7315   -0.0000 C   0  0  0  0  0  0  0  0  0  0  0  0
   -1.3310   -3.7315   -0.0000 C   0  0  0  0  0  0  0  0  0  0  0  0
    1.2597   -5.2289   -0.0000 C   0  0  0  0  0  0  0  0  0  0  0  0
    2.5669   -2.9710   -0.0000 C   0  0  0  0  0  0  0  0  0  0  0  0
   -1.3429   -5.2289   -0.0000 C   0  0  0  0  0  0  0  0  0  0  0  0
   -0.0475   -5.9776   -0.0000 N   0  0  0  0  0  0  0  0  0  0  0  0
    2.5550   -5.9657   -0.0000 C   0  0  0  0  0  0  0  0  0  0  0  0
    3.8623   -3.7078   -0.0000 C   0  0  0  0  0  0  0  0  0  0  0  0
   -2.6620   -5.9657   -0.0000 O   0  0  0  0  0  0  0  0  0  0  0  0
    3.8504   -5.2051   -0.0000 C   0  0  0  0  0  0  0  0  0  0  0  0
    5.1457   -2.9353   -0.0000 N   0  0  0  0  0  0  0  0  0  0  0  0
    5.1338   -1.4142   -0.0000 C   0  0  0  0  0  0  0  0  0  0  0  0
    6.4411   -3.6721   -0.0000 C   0  0  0  0  0  0  0  0  0  0  0  0
    6.4173   -0.6417   -0.0000 C   0  0  0  0  0  0  0  0  0  0  0  0
    7.7245   -2.8997   -0.0000 C   0  0  0  0  0  0  0  0  0  0  0  0
  1  2  1  0  0  0  0
  2  3  1  0  0  0  0
  2  4  1  0  0  0  0
  2  5  1  0  0  0  0
  5  6  1  0  0  0  0
  5  7  2  0  0  0  0
  6  8  1  0  0  0  0
  6  9  2  0  0  0  0
  7 10  1  0  0  0  0
  8 11  1  0  0  0  0
  8 12  2  0  0  0  0
  9 13  1  0  0  0  0
 10 14  1  0  0  0  0
 12 15  1  0  0  0  0
 13 16  1  0  0  0  0
 16 17  1  0  0  0  0
 16 18  1  0  0  0  0
 17 19  1  0  0  0  0
 18 20  1  0  0  0  0
 10 11  2  0  0  0  0
 13 15  2  0  0  0  0
M  END
>  <MolRegNo>
360120

>  <m>
=

>  <Value>
4.4

>  <Unit>
nM

>  <Type>
Ki

>  <pValue>
8.36

>  <Ligand Efficiency>
0.57

>  <Binding Efficiency>
29.4

>  <Surface Efficiency>
22.98

>  <Assay Index>
269865

>  <Assay Category>


>  <Assay Organism>
Homo sapiens

>  <Target ID>
56

>  <Target Name>
Androgen Receptor

>  <Target Organism>
Homo sapiens

>  <Target Description>
Target is a single protein chain

>  <Sequence Accession>
P10275

>  <Reference>
J Med Chem 49 (21), 6143-6146 (2006)

>  <Pubmed ID>
17034117

>  <DOI>
10.1021/jm060792t

$$$$
364998
Actelion Java MolfileCreator 1.0

 23 26  0  0  0  0  0  0  0  0999 V2000
    0.0000   -0.0000   -0.0000 O   0  0  0  0  0  0  0  0  0  0  0  0
   -0.4723    1.4405   -0.0000 C   0  0  0  0  0  0  0  0  0  0  0  0
    0.4014    2.6684   -0.0000 N   0  0  0  0  0  0  0  0  0  0  0  0
   -1.9127    1.9127   -0.0000 N   0  0  0  0  0  0  0  0  0  0  0  0
    1.8891    2.6802   -0.0000 C   0  0  0  0  0  0  0  0  0  0  0  0
   -0.4959    3.8963   -0.0000 C   0  0  0  0  0  0  0  0  0  0  0  0
   -1.9245    3.4240   -0.0000 C   0  0  0  0  0  0  0  0  0  0  0  0
   -3.3532    1.4641   -0.0000 C   0  0  0  0  0  0  0  0  0  0  0  0
    2.6330    1.3932   -0.0000 C   0  0  0  0  0  0  0  0  0  0  0  0
    2.6330    3.9908   -0.0000 C   0  0  0  0  0  0  0  0  0  0  0  0
   -0.0472    5.3368   -0.0000 O   0  0  0  0  0  0  0  0  0  0  0  0
   -3.3650    3.8963   -0.0000 C   0  0  0  0  0  0  0  0  0  0  0  0
   -4.2505    2.6920   -0.0000 C   0  0  0  0  0  0  0  0  0  0  0  0
    4.1206    1.4050   -0.0000 C   0  0  0  0  0  0  0  0  0  0  0  0
    1.8655    0.1063   -0.0000 C   0  0  0  0  0  0  0  0  0  0  0  0
    4.1206    4.0026   -0.0000 C   0  0  0  0  0  0  0  0  0  0  0  0
   -3.8373    5.3368   -0.0000 O   0  0  0  0  0  0  0  0  0  0  0  0
    4.8527    2.7156   -0.0000 C   0  0  0  0  0  0  0  0  0  0  0  0
    4.8527    0.1181   -0.0000 C   0  0  0  0  0  0  0  0  0  0  0  0
    2.6093   -1.1807   -0.0000 C   0  0  0  0  0  0  0  0  0  0  0  0
    6.3403    2.7274   -0.0000 C   0  0  0  0  0  0  0  0  0  0  0  0
    4.0970   -1.1689   -0.0000 C   0  0  0  0  0  0  0  0  0  0  0  0
    7.8280    2.7392   -0.0000 N   0  0  0  0  0  0  0  0  0  0  0  0
  1  2  2  0  0  0  0
  2  3  1  0  0  0  0
  2  4  1  0  0  0  0
  3  5  1  0  0  0  0
  3  6  1  0  0  0  0
  7  4  1  1  0  0  0
  4  8  1  0  0  0  0
  5  9  1  0  0  0  0
  5 10  2  0  0  0  0
  6 11  2  0  0  0  0
  7 12  1  0  0  0  0
  8 13  1  0  0  0  0
  9 14  1  0  0  0  0
  9 15  2  0  0  0  0
 10 16  1  0  0  0  0
 12 17  1  1  0  0  0
 14 18  1  0  0  0  0
 14 19  2  0  0  0  0
 15 20  1  0  0  0  0
 18 21  1  0  0  0  0
 19 22  1  0  0  0  0
 21 23  3  0  0  0  0
  6  7  1  0  0  0  0
 12 13  1  0  0  0  0
 16 18  2  0  0  0  0
 20 22  2  0  0  0  0
M  END
>  <MolRegNo>
364998

>  <m>
=

>  <Value>
5.3

>  <Unit>
nM

>  <Type>
Ki

>  <pValue>
8.28

>  <Ligand Efficiency>
0.49

>  <Binding Efficiency>
26.93

>  <Surface Efficiency>
9.78

>  <Assay Index>
271515

>  <Assay Category>


>  <Assay Organism>
Homo sapiens

>  <Target ID>
56

>  <Target Name>
Androgen Receptor

>  <Target Organism>
Homo sapiens

>  <Target Description>
Target is a single protein chain

>  <Sequence Accession>
P10275

>  <Reference>
J Med Chem 49 (26), 7596-7599 (2006)

>  <Pubmed ID>
17181141

>  <DOI>
10.1021/jm061101w

$$$$
364989
Actelion Java MolfileCreator 1.0

 23 26  0  0  0  0  0  0  0  0999 V2000
    0.0000   -0.0000   -0.0000 O   0  0  0  0  0  0  0  0  0  0  0  0
   -0.4744    1.4471   -0.0000 C   0  0  0  0  0  0  0  0  0  0  0  0
    0.3914    2.6688   -0.0000 N   0  0  0  0  0  0  0  0  0  0  0  0
   -1.9096    1.9215   -0.0000 N   0  0  0  0  0  0  0  0  0  0  0  0
    1.8859    2.6806   -0.0000 C   0  0  0  0  0  0  0  0  0  0  0  0
   -0.4982    3.8904   -0.0000 C   0  0  0  0  0  0  0  0  0  0  0  0
   -1.9334    3.4397   -0.0000 C   0  0  0  0  0  0  0  0  0  0  0  0
   -3.3448    1.4589   -0.0000 C   0  0  0  0  0  0  0  0  0  0  0  0
    2.6332    1.3996   -0.0000 C   0  0  0  0  0  0  0  0  0  0  0  0
    2.6213    3.9972   -0.0000 C   0  0  0  0  0  0  0  0  0  0  0  0
   -0.0474    5.3375   -0.0000 O   0  0  0  0  0  0  0  0  0  0  0  0
   -3.3804    3.9023   -0.0000 C   0  0  0  0  0  0  0  0  0  0  0  0
   -4.2463    2.6688   -0.0000 C   0  0  0  0  0  0  0  0  0  0  0  0
    4.1158    1.3996   -0.0000 C   0  0  0  0  0  0  0  0  0  0  0  0
    1.8622    0.1186   -0.0000 C   0  0  0  0  0  0  0  0  0  0  0  0
    4.1158    4.0091   -0.0000 C   0  0  0  0  0  0  0  0  0  0  0  0
   -3.8667    5.3494   -0.0000 O   0  0  0  0  0  0  0  0  0  0  0  0
    4.8512    2.7162   -0.0000 C   0  0  0  0  0  0  0  0  0  0  0  0
    4.8393    0.1186   -0.0000 C   0  0  0  0  0  0  0  0  0  0  0  0
    2.5976   -1.1743   -0.0000 C   0  0  0  0  0  0  0  0  0  0  0  0
    6.3338    2.7281   -0.0000 C   0  0  0  0  0  0  0  0  0  0  0  0
    4.0802   -1.1624   -0.0000 C   0  0  0  0  0  0  0  0  0  0  0  0
    7.8165    2.7399   -0.0000 N   0  0  0  0  0  0  0  0  0  0  0  0
  1  2  2  0  0  0  0
  2  3  1  0  0  0  0
  2  4  1  0  0  0  0
  3  5  1  0  0  0  0
  3  6  1  0  0  0  0
  4  7  1  0  0  0  0
  4  8  1  0  0  0  0
  5  9  1  0  0  0  0
  5 10  2  0  0  0  0
  6 11  2  0  0  0  0
  7 12  1  0  0  0  0
  8 13  1  0  0  0  0
  9 14  1  0  0  0  0
  9 15  2  0  0  0  0
 10 16  1  0  0  0  0
 12 17  1  0  0  0  0
 14 18  1  0  0  0  0
 14 19  2  0  0  0  0
 15 20  1  0  0  0  0
 18 21  1  0  0  0  0
 19 22  1  0  0  0  0
 21 23  3  0  0  0  0
  6  7  1  0  0  0  0
 12 13  1  0  0  0  0
 16 18  2  0  0  0  0
 20 22  2  0  0  0  0
M  END
>  <MolRegNo>
364989

>  <m>
=

>  <Value>
5.5

>  <Unit>
nM

>  <Type>
Ki

>  <pValue>
8.26

>  <Ligand Efficiency>
0.49

>  <Binding Efficiency>
26.88

>  <Surface Efficiency>
9.76

>  <Assay Index>
271515

>  <Assay Category>


>  <Assay Organism>
Homo sapiens

>  <Target ID>
56

>  <Target Name>
Androgen Receptor

>  <Target Organism>
Homo sapiens

>  <Target Description>
Target is a single protein chain

>  <Sequence Accession>
P10275

>  <Reference>
J Med Chem 49 (26), 7596-7599 (2006)

>  <Pubmed ID>
17181141

>  <DOI>
10.1021/jm061101w

$$$$
364982
Actelion Java MolfileCreator 1.0

 24 27  0  0  0  0  0  0  0  0999 V2000
    0.0000   -0.0000   -0.0000 O   0  0  0  0  0  0  0  0  0  0  0  0
   -0.7568   -1.2890   -0.0000 N   0  0  0  0  0  0  0  0  0  0  0  0
    0.0000   -2.5661   -0.0000 O   0  0  0  0  0  0  0  0  0  0  0  0
   -2.2705   -1.2771   -0.0000 C   0  0  0  0  0  0  0  0  0  0  0  0
   -3.0391   -2.5661   -0.0000 C   0  0  0  0  0  0  0  0  0  0  0  0
   -3.0391    0.0355   -0.0000 C   0  0  0  0  0  0  0  0  0  0  0  0
   -4.5409   -2.5425   -0.0000 C   0  0  0  0  0  0  0  0  0  0  0  0
   -2.3059   -3.8432   -0.0000 C   0  0  0  0  0  0  0  0  0  0  0  0
   -4.5528    0.0355   -0.0000 C   0  0  0  0  0  0  0  0  0  0  0  0
   -5.2978   -1.2417   -0.0000 C   0  0  0  0  0  0  0  0  0  0  0  0
   -5.2978   -3.8196   -0.0000 C   0  0  0  0  0  0  0  0  0  0  0  0
   -3.0628   -5.1204   -0.0000 C   0  0  0  0  0  0  0  0  0  0  0  0
   -6.8114   -1.2298   -0.0000 N   0  0  0  0  0  0  0  0  0  0  0  0
   -4.5646   -5.1086   -0.0000 C   0  0  0  0  0  0  0  0  0  0  0  0
   -7.6983   -2.4242   -0.0000 C   0  0  0  0  0  0  0  0  0  0  0  0
   -7.6983   -0.0118   -0.0000 C   0  0  0  0  0  0  0  0  0  0  0  0
   -7.2371   -3.8432   -0.0000 O   0  0  0  0  0  0  0  0  0  0  0  0
   -9.1292   -1.9512   -0.0000 N   0  0  0  0  0  0  0  0  0  0  0  0
   -7.2371    1.4309   -0.0000 O   0  0  0  0  0  0  0  0  0  0  0  0
   -9.1292   -0.4494   -0.0000 C   0  0  0  0  0  0  0  0  0  0  0  0
  -10.5601   -2.4124   -0.0000 C   0  0  0  0  0  0  0  0  0  0  0  0
  -10.5719    0.0118   -0.0000 C   0  0  0  0  0  0  0  0  0  0  0  0
  -11.4588   -1.2062   -0.0000 C   0  0  0  0  0  0  0  0  0  0  0  0
  -11.0567    1.4427   -0.0000 O   0  0  0  0  0  0  0  0  0  0  0  0
  1  2  2  0  0  0  0
  2  3  1  0  0  0  0
  2  4  1  0  0  0  0
  4  5  1  0  0  0  0
  4  6  2  0  0  0  0
  5  7  1  0  0  0  0
  5  8  2  0  0  0  0
  6  9  1  0  0  0  0
  7 10  1  0  0  0  0
  7 11  2  0  0  0  0
  8 12  1  0  0  0  0
 10 13  1  0  0  0  0
 11 14  1  0  0  0  0
 13 15  1  0  0  0  0
 13 16  1  0  0  0  0
 15 17  2  0  0  0  0
 15 18  1  0  0  0  0
 16 19  2  0  0  0  0
 16 20  1  0  0  0  0
 18 21  1  0  0  0  0
 20 22  1  0  0  0  0
 21 23  1  0  0  0  0
 22 24  1  1  0  0  0
  9 10  2  0  0  0  0
 12 14  2  0  0  0  0
 20 18  1  1  0  0  0
 22 23  1  0  0  0  0
M  CHG  2   2   1   3  -1
M  END
>  <MolRegNo>
364982

>  <m>
=

>  <Value>
1.5

>  <Unit>
nM

>  <Type>
Ki

>  <pValue>
8.82

>  <Ligand Efficiency>
0.5

>  <Binding Efficiency>
26.96

>  <Surface Efficiency>
8.49

>  <Assay Index>
271515

>  <Assay Category>


>  <Assay Organism>
Homo sapiens

>  <Target ID>
56

>  <Target Name>
Androgen Receptor

>  <Target Organism>
Homo sapiens

>  <Target Description>
Target is a single protein chain

>  <Sequence Accession>
P10275

>  <Reference>
J Med Chem 49 (26), 7596-7599 (2006)

>  <Pubmed ID>
17181141

>  <DOI>
10.1021/jm061101w

$$$$
364981
Actelion Java MolfileCreator 1.0

 24 27  0  0  0  0  0  0  0  0999 V2000
    0.0000   -0.0000   -0.0000 O   0  0  0  0  0  0  0  0  0  0  0  0
   -0.7689   -1.2894   -0.0000 N   0  0  0  0  0  0  0  0  0  0  0  0
   -0.0118   -2.5670   -0.0000 O   0  0  0  0  0  0  0  0  0  0  0  0
   -2.2831   -1.2776   -0.0000 C   0  0  0  0  0  0  0  0  0  0  0  0
   -3.0401   -2.5551   -0.0000 C   0  0  0  0  0  0  0  0  0  0  0  0
   -3.0520    0.0355   -0.0000 C   0  0  0  0  0  0  0  0  0  0  0  0
   -4.5424   -2.5315   -0.0000 C   0  0  0  0  0  0  0  0  0  0  0  0
   -2.3185   -3.8327   -0.0000 C   0  0  0  0  0  0  0  0  0  0  0  0
   -4.5661    0.0473   -0.0000 C   0  0  0  0  0  0  0  0  0  0  0  0
   -5.3114   -1.2302   -0.0000 C   0  0  0  0  0  0  0  0  0  0  0  0
   -5.3114   -3.8090   -0.0000 C   0  0  0  0  0  0  0  0  0  0  0  0
   -3.0756   -5.1103   -0.0000 C   0  0  0  0  0  0  0  0  0  0  0  0
   -6.8255   -1.2184   -0.0000 N   0  0  0  0  0  0  0  0  0  0  0  0
   -4.5779   -5.0984   -0.0000 C   0  0  0  0  0  0  0  0  0  0  0  0
   -7.7127   -2.4132   -0.0000 C   0  0  0  0  0  0  0  0  0  0  0  0
   -7.7127   -0.0000   -0.0000 C   0  0  0  0  0  0  0  0  0  0  0  0
   -7.2632   -3.8327   -0.0000 O   0  0  0  0  0  0  0  0  0  0  0  0
   -9.1440   -1.9400   -0.0000 N   0  0  0  0  0  0  0  0  0  0  0  0
   -7.2632    1.4432   -0.0000 O   0  0  0  0  0  0  0  0  0  0  0  0
   -9.1559   -0.4495   -0.0000 C   0  0  0  0  0  0  0  0  0  0  0  0
  -10.5754   -2.4013   -0.0000 C   0  0  0  0  0  0  0  0  0  0  0  0
  -10.5990    0.0118   -0.0000 C   0  0  0  0  0  0  0  0  0  0  0  0
  -11.4744   -1.1948   -0.0000 C   0  0  0  0  0  0  0  0  0  0  0  0
  -11.0840    1.4550   -0.0000 O   0  0  0  0  0  0  0  0  0  0  0  0
  1  2  2  0  0  0  0
  2  3  1  0  0  0  0
  2  4  1  0  0  0  0
  4  5  1  0  0  0  0
  4  6  2  0  0  0  0
  5  7  1  0  0  0  0
  5  8  2  0  0  0  0
  6  9  1  0  0  0  0
  7 10  1  0  0  0  0
  7 11  2  0  0  0  0
  8 12  1  0  0  0  0
 10 13  1  0  0  0  0
 11 14  1  0  0  0  0
 13 15  1  0  0  0  0
 13 16  1  0  0  0  0
 15 17  2  0  0  0  0
 15 18  1  0  0  0  0
 16 19  2  0  0  0  0
 16 20  1  0  0  0  0
 18 21  1  0  0  0  0
 20 22  1  0  0  0  0
 21 23  1  0  0  0  0
 22 24  1  0  0  0  0
  9 10  2  0  0  0  0
 12 14  2  0  0  0  0
 18 20  1  0  0  0  0
 22 23  1  0  0  0  0
M  CHG  2   2   1   3  -1
M  END
>  <MolRegNo>
364981

>  <m>
=

>  <Value>
3.5

>  <Unit>
nM

>  <Type>
Ki

>  <pValue>
8.46

>  <Ligand Efficiency>
0.48

>  <Binding Efficiency>
25.84

>  <Surface Efficiency>
8.13

>  <Assay Index>
271515

>  <Assay Category>


>  <Assay Organism>
Homo sapiens

>  <Target ID>
56

>  <Target Name>
Androgen Receptor

>  <Target Organism>
Homo sapiens

>  <Target Description>
Target is a single protein chain

>  <Sequence Accession>
P10275

>  <Reference>
J Med Chem 49 (26), 7596-7599 (2006)

>  <Pubmed ID>
17181141

>  <DOI>
10.1021/jm061101w

$$$$
1369826
Actelion Java MolfileCreator 1.0

 24 27  0  0  0  0  0  0  0  0999 V2000
    0.0000   -0.0000   -0.0000 O   0  0  0  0  0  0  0  0  0  0  0  0
   -0.7689   -1.2894   -0.0000 N   0  0  0  0  0  0  0  0  0  0  0  0
   -0.0118   -2.5669   -0.0000 O   0  0  0  0  0  0  0  0  0  0  0  0
   -2.2830   -1.2776   -0.0000 C   0  0  0  0  0  0  0  0  0  0  0  0
   -3.0401   -2.5669   -0.0000 C   0  0  0  0  0  0  0  0  0  0  0  0
   -3.0519    0.0355   -0.0000 C   0  0  0  0  0  0  0  0  0  0  0  0
   -4.5424   -2.5433   -0.0000 C   0  0  0  0  0  0  0  0  0  0  0  0
   -2.3185   -3.8445   -0.0000 C   0  0  0  0  0  0  0  0  0  0  0  0
   -4.5661    0.0473   -0.0000 C   0  0  0  0  0  0  0  0  0  0  0  0
   -5.3113   -1.2421   -0.0000 C   0  0  0  0  0  0  0  0  0  0  0  0
   -5.3113   -3.8208   -0.0000 C   0  0  0  0  0  0  0  0  0  0  0  0
   -3.0756   -5.1221   -0.0000 C   0  0  0  0  0  0  0  0  0  0  0  0
   -6.8255   -1.2302   -0.0000 N   0  0  0  0  0  0  0  0  0  0  0  0
   -4.5779   -5.1102   -0.0000 C   0  0  0  0  0  0  0  0  0  0  0  0
   -7.7127   -2.4250   -0.0000 C   0  0  0  0  0  0  0  0  0  0  0  0
   -7.7127   -0.0118   -0.0000 C   0  0  0  0  0  0  0  0  0  0  0  0
   -7.2631   -3.8445   -0.0000 O   0  0  0  0  0  0  0  0  0  0  0  0
   -9.1440   -1.9518   -0.0000 N   0  0  0  0  0  0  0  0  0  0  0  0
   -7.2631    1.4313   -0.0000 O   0  0  0  0  0  0  0  0  0  0  0  0
   -9.1558   -0.4613   -0.0000 C   0  0  0  0  0  0  0  0  0  0  0  0
  -10.5753   -2.4132   -0.0000 C   0  0  0  0  0  0  0  0  0  0  0  0
  -10.5990   -0.0000   -0.0000 C   0  0  0  0  0  0  0  0  0  0  0  0
  -11.4743   -1.2066   -0.0000 C   0  0  0  0  0  0  0  0  0  0  0  0
  -12.9767   -1.2066   -0.0000 O   0  0  0  0  0  0  0  0  0  0  0  0
  1  2  2  0  0  0  0
  2  3  1  0  0  0  0
  2  4  1  0  0  0  0
  4  5  1  0  0  0  0
  4  6  2  0  0  0  0
  5  7  1  0  0  0  0
  5  8  2  0  0  0  0
  6  9  1  0  0  0  0
  7 10  1  0  0  0  0
  7 11  2  0  0  0  0
  8 12  1  0  0  0  0
 10 13  1  0  0  0  0
 11 14  1  0  0  0  0
 13 15  1  0  0  0  0
 13 16  1  0  0  0  0
 15 17  2  0  0  0  0
 15 18  1  0  0  0  0
 16 19  2  0  0  0  0
 16 20  1  0  0  0  0
 18 21  1  0  0  0  0
 20 22  1  0  0  0  0
 21 23  1  0  0  0  0
 23 24  1  6  0  0  0
  9 10  2  0  0  0  0
 12 14  2  0  0  0  0
 20 18  1  1  0  0  0
 22 23  1  0  0  0  0
M  CHG  2   2   1   3  -1
M  END
>  <MolRegNo>
1369826

>  <m>
=

>  <Value>
4.3

>  <Unit>
nM

>  <Type>
Ki

>  <pValue>
8.37

>  <Ligand Efficiency>
0.48

>  <Binding Efficiency>
25.56

>  <Surface Efficiency>
8.05

>  <Assay Index>
271515

>  <Assay Category>


>  <Assay Organism>
Homo sapiens

>  <Target ID>
56

>  <Target Name>
Androgen Receptor

>  <Target Organism>
Homo sapiens

>  <Target Description>
Target is a single protein chain

>  <Sequence Accession>
P10275

>  <Reference>
J Med Chem 49 (26), 7596-7599 (2006)

>  <Pubmed ID>
17181141

>  <DOI>
10.1021/jm061101w

$$$$
364795
Actelion Java MolfileCreator 1.0

 24 27  0  0  0  0  0  0  0  0999 V2000
    0.0000   -0.0000   -0.0000 O   0  0  0  0  0  0  0  0  0  0  0  0
   -0.7689   -1.2894   -0.0000 N   0  0  0  0  0  0  0  0  0  0  0  0
   -0.0118   -2.5669   -0.0000 O   0  0  0  0  0  0  0  0  0  0  0  0
   -2.2830   -1.2776   -0.0000 C   0  0  0  0  0  0  0  0  0  0  0  0
   -3.0401   -2.5669   -0.0000 C   0  0  0  0  0  0  0  0  0  0  0  0
   -3.0519    0.0355   -0.0000 C   0  0  0  0  0  0  0  0  0  0  0  0
   -4.5424   -2.5433   -0.0000 C   0  0  0  0  0  0  0  0  0  0  0  0
   -2.3185   -3.8445   -0.0000 C   0  0  0  0  0  0  0  0  0  0  0  0
   -4.5661    0.0473   -0.0000 C   0  0  0  0  0  0  0  0  0  0  0  0
   -5.3113   -1.2421   -0.0000 C   0  0  0  0  0  0  0  0  0  0  0  0
   -5.3113   -3.8208   -0.0000 C   0  0  0  0  0  0  0  0  0  0  0  0
   -3.0756   -5.1221   -0.0000 C   0  0  0  0  0  0  0  0  0  0  0  0
   -6.8255   -1.2302   -0.0000 N   0  0  0  0  0  0  0  0  0  0  0  0
   -4.5779   -5.1102   -0.0000 C   0  0  0  0  0  0  0  0  0  0  0  0
   -7.7127   -2.4250   -0.0000 C   0  0  0  0  0  0  0  0  0  0  0  0
   -7.7127   -0.0118   -0.0000 C   0  0  0  0  0  0  0  0  0  0  0  0
   -7.2631   -3.8445   -0.0000 O   0  0  0  0  0  0  0  0  0  0  0  0
   -9.1440   -1.9518   -0.0000 N   0  0  0  0  0  0  0  0  0  0  0  0
   -7.2631    1.4313   -0.0000 O   0  0  0  0  0  0  0  0  0  0  0  0
   -9.1558   -0.4613   -0.0000 C   0  0  0  0  0  0  0  0  0  0  0  0
  -10.5753   -2.4132   -0.0000 C   0  0  0  0  0  0  0  0  0  0  0  0
  -10.5990   -0.0000   -0.0000 C   0  0  0  0  0  0  0  0  0  0  0  0
  -11.4743   -1.2066   -0.0000 C   0  0  0  0  0  0  0  0  0  0  0  0
  -12.9767   -1.2066   -0.0000 O   0  0  0  0  0  0  0  0  0  0  0  0
  1  2  2  0  0  0  0
  2  3  1  0  0  0  0
  2  4  1  0  0  0  0
  4  5  1  0  0  0  0
  4  6  2  0  0  0  0
  5  7  1  0  0  0  0
  5  8  2  0  0  0  0
  6  9  1  0  0  0  0
  7 10  1  0  0  0  0
  7 11  2  0  0  0  0
  8 12  1  0  0  0  0
 10 13  1  0  0  0  0
 11 14  1  0  0  0  0
 13 15  1  0  0  0  0
 13 16  1  0  0  0  0
 15 17  2  0  0  0  0
 15 18  1  0  0  0  0
 16 19  2  0  0  0  0
 16 20  1  0  0  0  0
 18 21  1  0  0  0  0
 20 22  1  0  0  0  0
 21 23  1  0  0  0  0
 23 24  1  1  0  0  0
  9 10  2  0  0  0  0
 12 14  2  0  0  0  0
 20 18  1  1  0  0  0
 22 23  1  0  0  0  0
M  CHG  2   2   1   3  -1
M  END
>  <MolRegNo>
364795

>  <m>
=

>  <Value>
1.5

>  <Unit>
nM

>  <Type>
Ki

>  <pValue>
8.82

>  <Ligand Efficiency>
0.5

>  <Binding Efficiency>
26.96

>  <Surface Efficiency>
8.49

>  <Assay Index>
271515

>  <Assay Category>


>  <Assay Organism>
Homo sapiens

>  <Target ID>
56

>  <Target Name>
Androgen Receptor

>  <Target Organism>
Homo sapiens

>  <Target Description>
Target is a single protein chain

>  <Sequence Accession>
P10275

>  <Reference>
J Med Chem 49 (26), 7596-7599 (2006)

>  <Pubmed ID>
17181141

>  <DOI>
10.1021/jm061101w

$$$$
364997
Actelion Java MolfileCreator 1.0

 23 26  0  0  0  0  0  0  0  0999 V2000
    0.0000   -0.0000   -0.0000 O   0  0  0  0  0  0  0  0  0  0  0  0
   -0.7689   -1.2895   -0.0000 N   0  0  0  0  0  0  0  0  0  0  0  0
   -0.0118   -2.5671   -0.0000 O   0  0  0  0  0  0  0  0  0  0  0  0
   -2.2832   -1.2776   -0.0000 C   0  0  0  0  0  0  0  0  0  0  0  0
   -3.0403   -2.5671   -0.0000 C   0  0  0  0  0  0  0  0  0  0  0  0
   -3.0521    0.0355   -0.0000 C   0  0  0  0  0  0  0  0  0  0  0  0
   -4.5427   -2.5434   -0.0000 C   0  0  0  0  0  0  0  0  0  0  0  0
   -2.3187   -3.8447   -0.0000 C   0  0  0  0  0  0  0  0  0  0  0  0
   -4.5663    0.0473   -0.0000 C   0  0  0  0  0  0  0  0  0  0  0  0
   -5.3116   -1.2421   -0.0000 C   0  0  0  0  0  0  0  0  0  0  0  0
   -5.3116   -3.8211   -0.0000 C   0  0  0  0  0  0  0  0  0  0  0  0
   -3.0758   -5.1224   -0.0000 C   0  0  0  0  0  0  0  0  0  0  0  0
   -6.8259   -1.2303   -0.0000 N   0  0  0  0  0  0  0  0  0  0  0  0
   -4.5782   -5.1105   -0.0000 C   0  0  0  0  0  0  0  0  0  0  0  0
   -7.7131   -2.4251   -0.0000 C   0  0  0  0  0  0  0  0  0  0  0  0
   -7.7131   -0.0118   -0.0000 C   0  0  0  0  0  0  0  0  0  0  0  0
   -7.2636   -3.8447   -0.0000 O   0  0  0  0  0  0  0  0  0  0  0  0
   -9.1445   -1.9519   -0.0000 N   0  0  0  0  0  0  0  0  0  0  0  0
   -7.2636    1.4314   -0.0000 O   0  0  0  0  0  0  0  0  0  0  0  0
   -9.1564   -0.4614   -0.0000 C   0  0  0  0  0  0  0  0  0  0  0  0
  -10.5760   -2.4133   -0.0000 C   0  0  0  0  0  0  0  0  0  0  0  0
  -10.5996   -0.0000   -0.0000 C   0  0  0  0  0  0  0  0  0  0  0  0
  -11.4750   -1.2067   -0.0000 C   0  0  0  0  0  0  0  0  0  0  0  0
  1  2  2  0  0  0  0
  2  3  1  0  0  0  0
  2  4  1  0  0  0  0
  4  5  1  0  0  0  0
  4  6  2  0  0  0  0
  5  7  1  0  0  0  0
  5  8  2  0  0  0  0
  6  9  1  0  0  0  0
  7 10  1  0  0  0  0
  7 11  2  0  0  0  0
  8 12  1  0  0  0  0
 10 13  1  0  0  0  0
 11 14  1  0  0  0  0
 13 15  1  0  0  0  0
 13 16  1  0  0  0  0
 15 17  2  0  0  0  0
 15 18  1  0  0  0  0
 16 19  2  0  0  0  0
 16 20  1  0  0  0  0
 18 21  1  0  0  0  0
 20 22  1  0  0  0  0
 21 23  1  0  0  0  0
  9 10  2  0  0  0  0
 12 14  2  0  0  0  0
 18 20  1  0  0  0  0
 22 23  1  0  0  0  0
M  CHG  2   2   1   3  -1
M  END
>  <MolRegNo>
364997

>  <m>
=

>  <Value>
1.7

>  <Unit>
nM

>  <Type>
Ki

>  <pValue>
8.77

>  <Ligand Efficiency>
0.52

>  <Binding Efficiency>
28.17

>  <Surface Efficiency>
10.47

>  <Assay Index>
271515

>  <Assay Category>


>  <Assay Organism>
Homo sapiens

>  <Target ID>
56

>  <Target Name>
Androgen Receptor

>  <Target Organism>
Homo sapiens

>  <Target Description>
Target is a single protein chain

>  <Sequence Accession>
P10275

>  <Reference>
J Med Chem 49 (26), 7596-7599 (2006)

>  <Pubmed ID>
17181141

>  <DOI>
10.1021/jm061101w

$$$$
364996
Actelion Java MolfileCreator 1.0

 24 28  0  0  0  0  0  0  0  0999 V2000
    0.0000   -0.0000   -0.0000 O   0  0  0  0  0  0  0  0  0  0  0  0
   -0.4790    1.4369   -0.0000 C   0  0  0  0  0  0  0  0  0  0  0  0
    0.3781    2.6469   -0.0000 N   0  0  0  0  0  0  0  0  0  0  0  0
   -1.9032    1.9032   -0.0000 N   0  0  0  0  0  0  0  0  0  0  0  0
    1.8528    2.6595   -0.0000 C   0  0  0  0  0  0  0  0  0  0  0  0
   -0.5042    3.8568   -0.0000 C   0  0  0  0  0  0  0  0  0  0  0  0
   -1.9158    3.3905   -0.0000 C   0  0  0  0  0  0  0  0  0  0  0  0
   -3.2014    1.1722   -0.0000 C   0  0  0  0  0  0  0  0  0  0  0  0
    2.5838    1.3864   -0.0000 C   0  0  0  0  0  0  0  0  0  0  0  0
    2.5712    3.9577   -0.0000 C   0  0  0  0  0  0  0  0  0  0  0  0
   -0.0504    5.2811   -0.0000 O   0  0  0  0  0  0  0  0  0  0  0  0
   -3.2140    4.1593   -0.0000 C   0  0  0  0  0  0  0  0  0  0  0  0
   -3.9955    2.7855   -0.0000 C   0  0  0  0  0  0  0  0  0  0  0  0
   -4.4997    1.9158   -0.0000 C   0  0  0  0  0  0  0  0  0  0  0  0
    4.0585    1.3864   -0.0000 C   0  0  0  0  0  0  0  0  0  0  0  0
    1.8276    0.1134   -0.0000 C   0  0  0  0  0  0  0  0  0  0  0  0
    4.0459    3.9703   -0.0000 C   0  0  0  0  0  0  0  0  0  0  0  0
   -4.5123    3.4157   -0.0000 C   0  0  0  0  0  0  0  0  0  0  0  0
    4.7895    2.6847   -0.0000 C   0  0  0  0  0  0  0  0  0  0  0  0
    4.7895    0.1134   -0.0000 C   0  0  0  0  0  0  0  0  0  0  0  0
    2.5460   -1.1596   -0.0000 C   0  0  0  0  0  0  0  0  0  0  0  0
    6.2642    2.6973   -0.0000 C   0  0  0  0  0  0  0  0  0  0  0  0
    4.0333   -1.1470   -0.0000 C   0  0  0  0  0  0  0  0  0  0  0  0
    7.7389    2.7099   -0.0000 N   0  0  0  0  0  0  0  0  0  0  0  0
  1  2  2  0  0  0  0
  2  3  1  0  0  0  0
  2  4  1  0  0  0  0
  3  5  1  0  0  0  0
  3  6  1  0  0  0  0
  7  4  1  1  0  0  0
  8  4  1  6  0  0  0
  5  9  1  0  0  0  0
  5 10  2  0  0  0  0
  6 11  2  0  0  0  0
  7 12  1  0  0  0  0
  8 13  1  0  0  0  0
  8 14  1  0  0  0  0
  9 15  1  0  0  0  0
  9 16  2  0  0  0  0
 10 17  1  0  0  0  0
 12 18  1  6  0  0  0
 15 19  1  0  0  0  0
 15 20  2  0  0  0  0
 16 21  1  0  0  0  0
 19 22  1  0  0  0  0
 20 23  1  0  0  0  0
 22 24  3  0  0  0  0
  6  7  1  0  0  0  0
 12 13  1  0  0  0  0
 14 18  1  0  0  0  0
 17 19  2  0  0  0  0
 21 23  2  0  0  0  0
M  END
>  <MolRegNo>
364996

>  <m>
=

>  <Value>
24

>  <Unit>
nM

>  <Type>
Ki

>  <pValue>
7.62

>  <Ligand Efficiency>
0.43

>  <Binding Efficiency>
24.01

>  <Surface Efficiency>
11.83

>  <Assay Index>
271515

>  <Assay Category>


>  <Assay Organism>
Homo sapiens

>  <Target ID>
56

>  <Target Name>
Androgen Receptor

>  <Target Organism>
Homo sapiens

>  <Target Description>
Target is a single protein chain

>  <Sequence Accession>
P10275

>  <Reference>
J Med Chem 49 (26), 7596-7599 (2006)

>  <Pubmed ID>
17181141

>  <DOI>
10.1021/jm061101w

$$$$
364988
Actelion Java MolfileCreator 1.0

 25 29  0  0  0  0  0  0  0  0999 V2000
    0.0000   -0.0000   -0.0000 O   0  0  0  0  0  0  0  0  0  0  0  0
   -0.7545   -1.2700   -0.0000 N   0  0  0  0  0  0  0  0  0  0  0  0
   -0.0251   -2.5401   -0.0000 O   0  0  0  0  0  0  0  0  0  0  0  0
   -2.2509   -1.2575   -0.0000 C   0  0  0  0  0  0  0  0  0  0  0  0
   -3.0053   -2.5275   -0.0000 C   0  0  0  0  0  0  0  0  0  0  0  0
   -3.0179    0.0377   -0.0000 C   0  0  0  0  0  0  0  0  0  0  0  0
   -4.5017   -2.5024   -0.0000 C   0  0  0  0  0  0  0  0  0  0  0  0
   -2.2760   -3.7975   -0.0000 C   0  0  0  0  0  0  0  0  0  0  0  0
   -4.5143    0.0503   -0.0000 C   0  0  0  0  0  0  0  0  0  0  0  0
   -5.2562   -1.2072   -0.0000 C   0  0  0  0  0  0  0  0  0  0  0  0
   -5.2562   -3.7724   -0.0000 C   0  0  0  0  0  0  0  0  0  0  0  0
   -3.0305   -5.0550   -0.0000 C   0  0  0  0  0  0  0  0  0  0  0  0
   -6.7526   -1.1946   -0.0000 N   0  0  0  0  0  0  0  0  0  0  0  0
   -4.5394   -5.0424   -0.0000 C   0  0  0  0  0  0  0  0  0  0  0  0
   -7.6328   -2.3766   -0.0000 C   0  0  0  0  0  0  0  0  0  0  0  0
   -7.6328    0.0126   -0.0000 C   0  0  0  0  0  0  0  0  0  0  0  0
   -7.1801   -3.7850   -0.0000 O   0  0  0  0  0  0  0  0  0  0  0  0
   -9.0537   -1.9113   -0.0000 N   0  0  0  0  0  0  0  0  0  0  0  0
   -7.1801    1.4335   -0.0000 O   0  0  0  0  0  0  0  0  0  0  0  0
   -9.0537   -0.4275   -0.0000 C   0  0  0  0  0  0  0  0  0  0  0  0
  -10.3489   -2.6407   -0.0000 C   0  0  0  0  0  0  0  0  0  0  0  0
  -10.3489    0.3395   -0.0000 C   0  0  0  0  0  0  0  0  0  0  0  0
  -11.1411   -1.0311   -0.0000 C   0  0  0  0  0  0  0  0  0  0  0  0
  -11.6441   -1.8988   -0.0000 C   0  0  0  0  0  0  0  0  0  0  0  0
  -11.6441   -0.4024   -0.0000 C   0  0  0  0  0  0  0  0  0  0  0  0
  1  2  2  0  0  0  0
  2  3  1  0  0  0  0
  2  4  1  0  0  0  0
  4  5  1  0  0  0  0
  4  6  2  0  0  0  0
  5  7  1  0  0  0  0
  5  8  2  0  0  0  0
  6  9  1  0  0  0  0
  7 10  1  0  0  0  0
  7 11  2  0  0  0  0
  8 12  1  0  0  0  0
 10 13  1  0  0  0  0
 11 14  1  0  0  0  0
 13 15  1  0  0  0  0
 13 16  1  0  0  0  0
 15 17  2  0  0  0  0
 15 18  1  0  0  0  0
 16 19  2  0  0  0  0
 16 20  1  0  0  0  0
 21 18  1  6  0  0  0
 20 22  1  0  0  0  0
 21 23  1  0  0  0  0
 21 24  1  0  0  0  0
 22 25  1  6  0  0  0
  9 10  2  0  0  0  0
 12 14  2  0  0  0  0
 20 18  1  1  0  0  0
 22 23  1  0  0  0  0
 24 25  1  0  0  0  0
M  CHG  2   2   1   3  -1
M  END
>  <MolRegNo>
364988

>  <m>
=

>  <Value>
1

>  <Unit>
nM

>  <Type>
Ki

>  <pValue>
9

>  <Ligand Efficiency>
0.49

>  <Binding Efficiency>
26.68

>  <Surface Efficiency>
10.74

>  <Assay Index>
271515

>  <Assay Category>


>  <Assay Organism>
Homo sapiens

>  <Target ID>
56

>  <Target Name>
Androgen Receptor

>  <Target Organism>
Homo sapiens

>  <Target Description>
Target is a single protein chain

>  <Sequence Accession>
P10275

>  <Reference>
J Med Chem 49 (26), 7596-7599 (2006)

>  <Pubmed ID>
17181141

>  <DOI>
10.1021/jm061101w

$$$$
377758
Actelion Java MolfileCreator 1.0

 26 29  0  0  0  0  0  0  0  0999 V2000
    0.0000   -0.0000   -0.0000 F   0  0  0  0  0  0  0  0  0  0  0  0
   -1.5173   -0.0000   -0.0000 C   0  0  0  0  0  0  0  0  0  0  0  0
   -1.5410    1.5173   -0.0000 F   0  0  0  0  0  0  0  0  0  0  0  0
   -3.0345   -0.0000   -0.0000 F   0  0  0  0  0  0  0  0  0  0  0  0
   -1.5291   -1.4936   -0.0000 C   0  0  0  0  0  0  0  0  0  0  0  0
   -0.2489   -2.2285   -0.0000 C   0  0  0  0  0  0  0  0  0  0  0  0
   -2.8449   -2.2285   -0.0000 C   0  0  0  0  0  0  0  0  0  0  0  0
   -0.2608   -3.7220   -0.0000 C   0  0  0  0  0  0  0  0  0  0  0  0
    1.0431   -1.4698   -0.0000 C   0  0  0  0  0  0  0  0  0  0  0  0
   -2.8567   -3.7220   -0.0000 C   0  0  0  0  0  0  0  0  0  0  0  0
   -1.5647   -4.4688   -0.0000 N   0  0  0  0  0  0  0  0  0  0  0  0
    1.0313   -4.4569   -0.0000 C   0  0  0  0  0  0  0  0  0  0  0  0
    2.3352   -2.2048   -0.0000 C   0  0  0  0  0  0  0  0  0  0  0  0
   -4.1725   -4.4569   -0.0000 O   0  0  0  0  0  0  0  0  0  0  0  0
    2.3114   -3.6983   -0.0000 C   0  0  0  0  0  0  0  0  0  0  0  0
    3.6272   -1.4343   -0.0000 N   0  0  0  0  0  0  0  0  0  0  0  0
    3.6035   -4.4451   -0.0000 O   0  0  0  0  0  0  0  0  0  0  0  0
    4.9311   -2.1811   -0.0000 C   0  0  0  0  0  0  0  0  0  0  0  0
    3.6153    0.0830   -0.0000 C   0  0  0  0  0  0  0  0  0  0  0  0
    4.9074   -3.6865   -0.0000 C   0  0  0  0  0  0  0  0  0  0  0  0
    4.9074    0.8416   -0.0000 C   0  0  0  0  0  0  0  0  0  0  0  0
    6.1876    0.0948   -0.0000 C   0  0  0  0  0  0  0  0  0  0  0  0
    4.8837    2.3470   -0.0000 C   0  0  0  0  0  0  0  0  0  0  0  0
    7.4796    0.8535   -0.0000 C   0  0  0  0  0  0  0  0  0  0  0  0
    6.1639    3.1175   -0.0000 C   0  0  0  0  0  0  0  0  0  0  0  0
    7.4678    2.3707   -0.0000 C   0  0  0  0  0  0  0  0  0  0  0  0
  1  2  1  0  0  0  0
  2  3  1  0  0  0  0
  2  4  1  0  0  0  0
  2  5  1  0  0  0  0
  5  6  1  0  0  0  0
  5  7  2  0  0  0  0
  6  8  2  0  0  0  0
  6  9  1  0  0  0  0
  7 10  1  0  0  0  0
  8 11  1  0  0  0  0
  8 12  1  0  0  0  0
  9 13  2  0  0  0  0
 10 14  2  0  0  0  0
 12 15  2  0  0  0  0
 13 16  1  0  0  0  0
 15 17  1  0  0  0  0
 16 18  1  0  0  0  0
 16 19  1  0  0  0  0
 17 20  1  0  0  0  0
 19 21  1  0  0  0  0
 21 22  2  0  0  0  0
 21 23  1  0  0  0  0
 22 24  1  0  0  0  0
 23 25  2  0  0  0  0
 24 26  2  0  0  0  0
 10 11  1  0  0  0  0
 13 15  1  0  0  0  0
 18 20  1  0  0  0  0
 25 26  1  0  0  0  0
M  END
>  <MolRegNo>
377758

>  <m>
=

>  <Value>
206

>  <Unit>
nM

>  <Type>
Ki

>  <pValue>
6.69

>  <Ligand Efficiency>
0.35

>  <Binding Efficiency>
18.56

>  <Surface Efficiency>
14.75

>  <Assay Index>
283550

>  <Assay Category>


>  <Assay Organism>
Homo sapiens

>  <Target ID>
56

>  <Target Name>
Androgen Receptor

>  <Target Organism>
Homo sapiens

>  <Target Description>
Target is a single protein chain

>  <Sequence Accession>
P10275

>  <Reference>
J Med Chem 50 (10), 2486-2496 (2007)

>  <Pubmed ID>
17439112

>  <DOI>
10.1021/jm061329j

$$$$
384029
Actelion Java MolfileCreator 1.0

 19 21  0  0  1  0  0  0  0  0999 V2000
    0.0000   -0.0000   -0.0000 O   0  0  0  0  0  0  0  0  0  0  0  0
   -0.4604    1.4403   -0.0000 C   0  0  0  0  0  0  0  0  0  0  0  0
    0.4132    2.6562   -0.0000 N   0  0  0  0  0  0  0  0  0  0  0  0
   -1.8889    1.9243   -0.0000 N   0  0  0  0  0  0  0  0  0  0  0  0
    1.9007    2.6680   -0.0000 C   0  0  0  0  0  0  0  0  0  0  0  0
   -0.4722    3.8840   -0.0000 C   0  0  0  0  0  0  0  0  0  0  0  0
   -1.8889    3.4354   -0.0000 C   0  0  0  0  0  0  0  0  0  0  0  0
   -3.3291    1.4757   -0.0000 C   0  0  0  0  0  0  0  0  0  0  0  0
    2.6444    3.9666   -0.0000 C   0  0  0  0  0  0  0  0  0  0  0  0
    2.6326    1.3812   -0.0000 C   0  0  0  0  0  0  0  0  0  0  0  0
   -0.0118    5.3243   -0.0000 O   0  0  0  0  0  0  0  0  0  0  0  0
   -3.3291    3.9194   -0.0000 C   0  0  0  0  0  0  0  0  0  0  0  0
   -4.2146    2.7035   -0.0000 C   0  0  0  0  0  0  0  0  0  0  0  0
    4.1319    3.9784   -0.0000 C   0  0  0  0  0  0  0  0  0  0  0  0
    4.1201    1.3812   -0.0000 C   0  0  0  0  0  0  0  0  0  0  0  0
   -3.7896    5.3597   -0.0000 O   0  0  0  0  0  0  0  0  0  0  0  0
    4.8639    2.6798   -0.0000 C   0  0  0  0  0  0  0  0  0  0  0  0
    6.3513    2.6916   -0.0000 C   0  0  0  0  0  0  0  0  0  0  0  0
    7.8388    2.6916   -0.0000 N   0  0  0  0  0  0  0  0  0  0  0  0
  1  2  2  0  0  0  0
  2  3  1  0  0  0  0
  2  4  1  0  0  0  0
  3  5  1  0  0  0  0
  3  6  1  0  0  0  0
  7  4  1  1  0  0  0
  4  8  1  0  0  0  0
  5  9  2  0  0  0  0
  5 10  1  0  0  0  0
  6 11  2  0  0  0  0
  7 12  1  0  0  0  0
  8 13  1  0  0  0  0
  9 14  1  0  0  0  0
 10 15  2  0  0  0  0
 12 16  1  1  0  0  0
 14 17  2  0  0  0  0
 17 18  1  0  0  0  0
 18 19  3  0  0  0  0
  6  7  1  0  0  0  0
 12 13  1  0  0  0  0
 15 17  1  0  0  0  0
M  END
>  <MolRegNo>
384029

>  <m>
=

>  <Value>
34

>  <Unit>
nM

>  <Type>
Ki

>  <pValue>
7.47

>  <Ligand Efficiency>
0.54

>  <Binding Efficiency>
29.03

>  <Surface Efficiency>
8.82

>  <Assay Index>
287174

>  <Assay Category>


>  <Assay Organism>
Homo sapiens

>  <Target ID>
56

>  <Target Name>
Androgen Receptor

>  <Target Organism>
Homo sapiens

>  <Target Description>
Target is a single protein chain

>  <Sequence Accession>
P10275

>  <Reference>
Bioorg Med Chem Lett 17 (7), 1860-1864 (2007)

>  <Pubmed ID>
17292608

>  <DOI>
10.1016/j.bmcl.2007.01.076

$$$$
384031
Actelion Java MolfileCreator 1.0

 23 25  0  0  1  0  0  0  0  0999 V2000
    0.0000   -0.0000   -0.0000 F   0  0  0  0  0  0  0  0  0  0  0  0
   -1.3177   -0.7177   -0.0000 C   0  0  0  0  0  0  0  0  0  0  0  0
   -0.5883   -2.0001   -0.0000 F   0  0  0  0  0  0  0  0  0  0  0  0
   -2.6236   -1.4471   -0.0000 F   0  0  0  0  0  0  0  0  0  0  0  0
   -2.0706    0.6000   -0.0000 C   0  0  0  0  0  0  0  0  0  0  0  0
   -1.3294    1.9059   -0.0000 C   0  0  0  0  0  0  0  0  0  0  0  0
   -3.5766    0.6235   -0.0000 C   0  0  0  0  0  0  0  0  0  0  0  0
    0.1529    1.9177   -0.0000 C   0  0  0  0  0  0  0  0  0  0  0  0
   -2.0824    3.2236   -0.0000 C   0  0  0  0  0  0  0  0  0  0  0  0
   -4.3295    1.9295   -0.0000 C   0  0  0  0  0  0  0  0  0  0  0  0
    1.6353    1.9177   -0.0000 N   0  0  0  0  0  0  0  0  0  0  0  0
   -3.5883    3.2354   -0.0000 C   0  0  0  0  0  0  0  0  0  0  0  0
   -5.8355    1.9412   -0.0000 N   0  0  0  0  0  0  0  0  0  0  0  0
   -6.7296    0.7530   -0.0000 C   0  0  0  0  0  0  0  0  0  0  0  0
   -6.7178    3.1648   -0.0000 C   0  0  0  0  0  0  0  0  0  0  0  0
   -6.2943   -0.6588   -0.0000 O   0  0  0  0  0  0  0  0  0  0  0  0
   -8.1532    1.2353   -0.0000 N   0  0  0  0  0  0  0  0  0  0  0  0
   -6.2590    4.6001   -0.0000 O   0  0  0  0  0  0  0  0  0  0  0  0
   -8.1532    2.7295   -0.0000 C   0  0  0  0  0  0  0  0  0  0  0  0
   -9.5885    0.7883   -0.0000 C   0  0  0  0  0  0  0  0  0  0  0  0
   -9.5885    3.2119   -0.0000 C   0  0  0  0  0  0  0  0  0  0  0  0
  -10.4709    2.0118   -0.0000 C   0  0  0  0  0  0  0  0  0  0  0  0
  -10.0473    4.6472   -0.0000 O   0  0  0  0  0  0  0  0  0  0  0  0
  1  2  1  0  0  0  0
  2  3  1  0  0  0  0
  2  4  1  0  0  0  0
  2  5  1  0  0  0  0
  5  6  2  0  0  0  0
  5  7  1  0  0  0  0
  6  8  1  0  0  0  0
  6  9  1  0  0  0  0
  7 10  2  0  0  0  0
  8 11  3  0  0  0  0
  9 12  2  0  0  0  0
 10 13  1  0  0  0  0
 13 14  1  0  0  0  0
 13 15  1  0  0  0  0
 14 16  2  0  0  0  0
 14 17  1  0  0  0  0
 15 18  2  0  0  0  0
 15 19  1  0  0  0  0
 17 20  1  0  0  0  0
 19 21  1  0  0  0  0
 20 22  1  0  0  0  0
 21 23  1  1  0  0  0
 10 12  1  0  0  0  0
 19 17  1  1  0  0  0
 21 22  1  0  0  0  0
M  END
>  <MolRegNo>
384031

>  <m>
=

>  <Value>
7.8

>  <Unit>
nM

>  <Type>
Ki

>  <pValue>
8.11

>  <Ligand Efficiency>
0.48

>  <Binding Efficiency>
24.93

>  <Surface Efficiency>
9.58

>  <Assay Index>
287174

>  <Assay Category>


>  <Assay Organism>
Homo sapiens

>  <Target ID>
56

>  <Target Name>
Androgen Receptor

>  <Target Organism>
Homo sapiens

>  <Target Description>
Target is a single protein chain

>  <Sequence Accession>
P10275

>  <Reference>
Bioorg Med Chem Lett 17 (7), 1860-1864 (2007)

>  <Pubmed ID>
17292608

>  <DOI>
10.1016/j.bmcl.2007.01.076

$$$$
386916
Actelion Java MolfileCreator 1.0

 21 23  0  0  0  0  0  0  0  0999 V2000
    0.0000   -0.0000   -0.0000 Cl  0  0  0  0  0  0  0  0  0  0  0  0
   -0.7779   -1.2847   -0.0000 C   0  0  0  0  0  0  0  0  0  0  0  0
   -0.0471   -2.5812   -0.0000 C   0  0  0  0  0  0  0  0  0  0  0  0
   -2.2748   -1.2611   -0.0000 C   0  0  0  0  0  0  0  0  0  0  0  0
    1.4261   -2.5812   -0.0000 C   0  0  0  0  0  0  0  0  0  0  0  0
   -0.8250   -3.8659   -0.0000 C   0  0  0  0  0  0  0  0  0  0  0  0
   -3.0409   -2.5341   -0.0000 C   0  0  0  0  0  0  0  0  0  0  0  0
   -3.0291    0.0471   -0.0000 C   0  0  0  0  0  0  0  0  0  0  0  0
    2.9112   -2.5812   -0.0000 N   0  0  0  0  0  0  0  0  0  0  0  0
   -2.3337   -3.8423   -0.0000 C   0  0  0  0  0  0  0  0  0  0  0  0
   -4.5495   -2.5105   -0.0000 C   0  0  0  0  0  0  0  0  0  0  0  0
   -5.4571   -3.7009   -0.0000 C   0  0  0  0  0  0  0  0  0  0  0  0
   -5.4335   -1.2847   -0.0000 C   0  0  0  0  0  0  0  0  0  0  0  0
   -5.0210   -5.1153   -0.0000 O   0  0  0  0  0  0  0  0  0  0  0  0
   -6.8950   -3.2177   -0.0000 N   0  0  0  0  0  0  0  0  0  0  0  0
   -6.8714   -1.7208   -0.0000 C   0  0  0  0  0  0  0  0  0  0  0  0
   -4.9738    0.1532   -0.0000 C   0  0  0  0  0  0  0  0  0  0  0  0
   -8.3329   -3.6538   -0.0000 C   0  0  0  0  0  0  0  0  0  0  0  0
   -8.3094   -1.2376   -0.0000 C   0  0  0  0  0  0  0  0  0  0  0  0
   -9.2169   -2.4280   -0.0000 C   0  0  0  0  0  0  0  0  0  0  0  0
   -8.7690    0.2004   -0.0000 O   0  0  0  0  0  0  0  0  0  0  0  0
  1  2  1  0  0  0  0
  2  3  2  0  0  0  0
  2  4  1  0  0  0  0
  3  5  1  0  0  0  0
  3  6  1  0  0  0  0
  4  7  2  0  0  0  0
  4  8  1  0  0  0  0
  5  9  3  0  0  0  0
  6 10  2  0  0  0  0
  7 11  1  0  0  0  0
 11 12  1  0  0  0  0
 11 13  2  0  0  0  0
 12 14  2  0  0  0  0
 12 15  1  0  0  0  0
 13 16  1  0  0  0  0
 13 17  1  0  0  0  0
 15 18  1  0  0  0  0
 16 19  1  0  0  0  0
 18 20  1  0  0  0  0
 19 21  1  6  0  0  0
  7 10  1  0  0  0  0
 16 15  1  1  0  0  0
 19 20  1  0  0  0  0
M  END
>  <MolRegNo>
386916

>  <m>
=

>  <Value>
0.5

>  <Unit>
nM

>  <Type>
Ki

>  <pValue>
9.3

>  <Ligand Efficiency>
0.6

>  <Binding Efficiency>
30.72

>  <Surface Efficiency>
14.46

>  <Assay Index>
288166

>  <Assay Category>


>  <Assay Organism>
Homo sapiens

>  <Target ID>
56

>  <Target Name>
Androgen Receptor

>  <Target Organism>
Homo sapiens

>  <Target Description>
Target is a single protein chain

>  <Sequence Accession>
P10275

>  <Reference>
J Med Chem 50 (13), 3015-3025 (2007)

>  <Pubmed ID>
17552509

>  <DOI>
10.1021/jm070312d

$$$$
381853
Actelion Java MolfileCreator 1.0

 23 25  0  0  1  0  0  0  0  0999 V2000
    0.0000   -0.0000   -0.0000 Cl  0  0  0  0  0  0  0  0  0  0  0  0
   -0.7724   -1.2952   -0.0000 C   0  0  0  0  0  0  0  0  0  0  0  0
   -0.0356   -2.6024   -0.0000 C   0  0  0  0  0  0  0  0  0  0  0  0
   -2.2934   -1.2715   -0.0000 C   0  0  0  0  0  0  0  0  0  0  0  0
    1.4616   -2.6024   -0.0000 C   0  0  0  0  0  0  0  0  0  0  0  0
   -0.8199   -3.8857   -0.0000 C   0  0  0  0  0  0  0  0  0  0  0  0
   -3.0539   -2.5548   -0.0000 C   0  0  0  0  0  0  0  0  0  0  0  0
   -2.8876   -0.1545   -0.0000 C   0  0  0  0  0  0  0  0  0  0  0  0
    2.9589   -2.6024   -0.0000 N   0  0  0  0  0  0  0  0  0  0  0  0
   -2.3409   -3.8620   -0.0000 C   0  0  0  0  0  0  0  0  0  0  0  0
   -4.5749   -2.5311   -0.0000 N   0  0  0  0  0  0  0  0  0  0  0  0
   -5.4899   -3.7313   -0.0000 C   0  0  0  0  0  0  0  0  0  0  0  0
   -5.4662   -1.2952   -0.0000 C   0  0  0  0  0  0  0  0  0  0  0  0
   -5.0503   -5.1572   -0.0000 O   0  0  0  0  0  0  0  0  0  0  0  0
   -6.9278   -3.2440   -0.0000 N   0  0  0  0  0  0  0  0  0  0  0  0
   -6.9159   -1.7349   -0.0000 C   0  0  0  0  0  0  0  0  0  0  0  0
   -5.0027    0.1426   -0.0000 C   0  0  0  0  0  0  0  0  0  0  0  0
   -8.3775   -3.6837   -0.0000 C   0  0  0  0  0  0  0  0  0  0  0  0
   -8.3537   -1.2477   -0.0000 C   0  0  0  0  0  0  0  0  0  0  0  0
   -6.0128    1.2834   -0.0000 C   0  0  0  0  0  0  0  0  0  0  0  0
   -3.5411    0.4516   -0.0000 C   0  0  0  0  0  0  0  0  0  0  0  0
   -9.2687   -2.4479   -0.0000 C   0  0  0  0  0  0  0  0  0  0  0  0
   -8.8172    0.2020   -0.0000 O   0  0  0  0  0  0  0  0  0  0  0  0
  1  2  1  0  0  0  0
  2  3  2  0  0  0  0
  2  4  1  0  0  0  0
  3  5  1  0  0  0  0
  3  6  1  0  0  0  0
  4  7  2  0  0  0  0
  4  8  1  0  0  0  0
  5  9  3  0  0  0  0
  6 10  2  0  0  0  0
  7 11  1  0  0  0  0
 11 12  1  0  0  0  0
 11 13  1  0  0  0  0
 12 14  2  0  0  0  0
 12 15  1  0  0  0  0
 13 16  1  0  0  0  0
 13 17  1  1  0  0  0
 15 18  1  0  0  0  0
 16 19  1  0  0  0  0
 17 20  1  0  0  0  0
 17 21  1  0  0  0  0
 18 22  1  0  0  0  0
 19 23  1  1  0  0  0
  7 10  1  0  0  0  0
 16 15  1  1  0  0  0
 19 22  1  0  0  0  0
M  END
>  <MolRegNo>
381853

>  <m>
=

>  <Value>
23

>  <Unit>
nM

>  <Type>
Ki

>  <pValue>
7.64

>  <Ligand Efficiency>
0.45

>  <Binding Efficiency>
22.88

>  <Surface Efficiency>
11.3

>  <Assay Index>
288166

>  <Assay Category>


>  <Assay Organism>
Homo sapiens

>  <Target ID>
56

>  <Target Name>
Androgen Receptor

>  <Target Organism>
Homo sapiens

>  <Target Description>
Target is a single protein chain

>  <Sequence Accession>
P10275

>  <Reference>
J Med Chem 50 (13), 3015-3025 (2007)

>  <Pubmed ID>
17552509

>  <DOI>
10.1021/jm070312d

$$$$
381852
Actelion Java MolfileCreator 1.0

 24 26  0  0  1  0  0  0  0  0999 V2000
    0.0000   -0.0000   -0.0000 Cl  0  0  0  0  0  0  0  0  0  0  0  0
   -0.7658   -1.2842   -0.0000 C   0  0  0  0  0  0  0  0  0  0  0  0
   -0.0353   -2.5803   -0.0000 C   0  0  0  0  0  0  0  0  0  0  0  0
   -2.2739   -1.2607   -0.0000 C   0  0  0  0  0  0  0  0  0  0  0  0
    1.4492   -2.5803   -0.0000 C   0  0  0  0  0  0  0  0  0  0  0  0
   -0.8130   -3.8527   -0.0000 C   0  0  0  0  0  0  0  0  0  0  0  0
   -3.0398   -2.5331   -0.0000 C   0  0  0  0  0  0  0  0  0  0  0  0
   -3.0280    0.0471   -0.0000 C   0  0  0  0  0  0  0  0  0  0  0  0
    2.9337   -2.5803   -0.0000 N   0  0  0  0  0  0  0  0  0  0  0  0
   -2.3211   -3.8292   -0.0000 C   0  0  0  0  0  0  0  0  0  0  0  0
   -4.5479   -2.5096   -0.0000 N   0  0  0  0  0  0  0  0  0  0  0  0
   -5.4551   -3.6995   -0.0000 C   0  0  0  0  0  0  0  0  0  0  0  0
   -5.4315   -1.2725   -0.0000 C   0  0  0  0  0  0  0  0  0  0  0  0
   -5.0191   -5.1134   -0.0000 O   0  0  0  0  0  0  0  0  0  0  0  0
   -6.8807   -3.2165   -0.0000 N   0  0  0  0  0  0  0  0  0  0  0  0
   -4.9720    0.1532   -0.0000 C   0  0  0  0  0  0  0  0  0  0  0  0
   -6.8689   -1.7084   -0.0000 C   0  0  0  0  0  0  0  0  0  0  0  0
   -8.3181   -3.6524   -0.0000 C   0  0  0  0  0  0  0  0  0  0  0  0
   -4.6068    1.6259   -0.0000 F   0  0  0  0  0  0  0  0  0  0  0  0
   -6.3505    0.7776   -0.0000 F   0  0  0  0  0  0  0  0  0  0  0  0
   -3.6171   -0.4477   -0.0000 F   0  0  0  0  0  0  0  0  0  0  0  0
   -8.2945   -1.2253   -0.0000 C   0  0  0  0  0  0  0  0  0  0  0  0
   -9.2017   -2.4271   -0.0000 C   0  0  0  0  0  0  0  0  0  0  0  0
   -8.7540    0.2121   -0.0000 O   0  0  0  0  0  0  0  0  0  0  0  0
  1  2  1  0  0  0  0
  2  3  2  0  0  0  0
  2  4  1  0  0  0  0
  3  5  1  0  0  0  0
  3  6  1  0  0  0  0
  4  7  2  0  0  0  0
  4  8  1  0  0  0  0
  5  9  3  0  0  0  0
  6 10  2  0  0  0  0
  7 11  1  0  0  0  0
 11 12  1  0  0  0  0
 11 13  1  0  0  0  0
 12 14  2  0  0  0  0
 12 15  1  0  0  0  0
 13 16  1  1  0  0  0
 13 17  1  0  0  0  0
 15 18  1  0  0  0  0
 16 19  1  0  0  0  0
 16 20  1  0  0  0  0
 16 21  1  0  0  0  0
 17 22  1  0  0  0  0
 18 23  1  0  0  0  0
 22 24  1  1  0  0  0
  7 10  1  0  0  0  0
 17 15  1  1  0  0  0
 22 23  1  0  0  0  0
M  END
>  <MolRegNo>
381852

>  <m>
=

>  <Value>
2.2

>  <Unit>
nM

>  <Type>
Ki

>  <pValue>
8.66

>  <Ligand Efficiency>
0.49

>  <Binding Efficiency>
24.07

>  <Surface Efficiency>
12.81

>  <Assay Index>
288166

>  <Assay Category>


>  <Assay Organism>
Homo sapiens

>  <Target ID>
56

>  <Target Name>
Androgen Receptor

>  <Target Organism>
Homo sapiens

>  <Target Description>
Target is a single protein chain

>  <Sequence Accession>
P10275

>  <Reference>
J Med Chem 50 (13), 3015-3025 (2007)

>  <Pubmed ID>
17552509

>  <DOI>
10.1021/jm070312d

$$$$
381851
Actelion Java MolfileCreator 1.0

 22 24  0  0  1  0  0  0  0  0999 V2000
    0.0000   -0.0000   -0.0000 Cl  0  0  0  0  0  0  0  0  0  0  0  0
   -0.7665   -1.2854   -0.0000 C   0  0  0  0  0  0  0  0  0  0  0  0
   -0.0354   -2.5826   -0.0000 C   0  0  0  0  0  0  0  0  0  0  0  0
   -2.2760   -1.2618   -0.0000 C   0  0  0  0  0  0  0  0  0  0  0  0
    1.4505   -2.5826   -0.0000 C   0  0  0  0  0  0  0  0  0  0  0  0
   -0.8137   -3.8562   -0.0000 C   0  0  0  0  0  0  0  0  0  0  0  0
   -3.0425   -2.5354   -0.0000 C   0  0  0  0  0  0  0  0  0  0  0  0
   -3.0307    0.0472   -0.0000 C   0  0  0  0  0  0  0  0  0  0  0  0
    2.9364   -2.5826   -0.0000 N   0  0  0  0  0  0  0  0  0  0  0  0
   -2.3232   -3.8327   -0.0000 C   0  0  0  0  0  0  0  0  0  0  0  0
   -4.5520   -2.5119   -0.0000 N   0  0  0  0  0  0  0  0  0  0  0  0
   -5.4601   -3.7029   -0.0000 C   0  0  0  0  0  0  0  0  0  0  0  0
   -5.4365   -1.2854   -0.0000 C   0  0  0  0  0  0  0  0  0  0  0  0
   -5.0237   -5.1181   -0.0000 O   0  0  0  0  0  0  0  0  0  0  0  0
   -6.8870   -3.2194   -0.0000 N   0  0  0  0  0  0  0  0  0  0  0  0
   -6.8752   -1.7217   -0.0000 C   0  0  0  0  0  0  0  0  0  0  0  0
   -4.9766    0.1415   -0.0000 C   0  0  0  0  0  0  0  0  0  0  0  0
   -8.3257   -3.6558   -0.0000 C   0  0  0  0  0  0  0  0  0  0  0  0
   -8.3021   -1.2382   -0.0000 C   0  0  0  0  0  0  0  0  0  0  0  0
   -5.9789    1.2736   -0.0000 C   0  0  0  0  0  0  0  0  0  0  0  0
   -9.2102   -2.4293   -0.0000 C   0  0  0  0  0  0  0  0  0  0  0  0
   -8.7620    0.2005   -0.0000 O   0  0  0  0  0  0  0  0  0  0  0  0
  1  2  1  0  0  0  0
  2  3  2  0  0  0  0
  2  4  1  0  0  0  0
  3  5  1  0  0  0  0
  3  6  1  0  0  0  0
  4  7  2  0  0  0  0
  4  8  1  0  0  0  0
  5  9  3  0  0  0  0
  6 10  2  0  0  0  0
  7 11  1  0  0  0  0
 11 12  1  0  0  0  0
 11 13  1  0  0  0  0
 12 14  2  0  0  0  0
 12 15  1  0  0  0  0
 13 16  1  0  0  0  0
 13 17  1  1  0  0  0
 15 18  1  0  0  0  0
 16 19  1  0  0  0  0
 17 20  1  0  0  0  0
 18 21  1  0  0  0  0
 19 22  1  1  0  0  0
  7 10  1  0  0  0  0
 16 15  1  1  0  0  0
 19 21  1  0  0  0  0
M  END
>  <MolRegNo>
381851

>  <m>
=

>  <Value>
2.3

>  <Unit>
nM

>  <Type>
Ki

>  <pValue>
8.64

>  <Ligand Efficiency>
0.54

>  <Binding Efficiency>
27.01

>  <Surface Efficiency>
12.78

>  <Assay Index>
288166

>  <Assay Category>


>  <Assay Organism>
Homo sapiens

>  <Target ID>
56

>  <Target Name>
Androgen Receptor

>  <Target Organism>
Homo sapiens

>  <Target Description>
Target is a single protein chain

>  <Sequence Accession>
P10275

>  <Reference>
J Med Chem 50 (13), 3015-3025 (2007)

>  <Pubmed ID>
17552509

>  <DOI>
10.1021/jm070312d

$$$$
381850
Actelion Java MolfileCreator 1.0

 24 26  0  0  1  0  0  0  0  0999 V2000
    0.0000   -0.0000   -0.0000 Cl  0  0  0  0  0  0  0  0  0  0  0  0
   -0.7673   -1.2867   -0.0000 C   0  0  0  0  0  0  0  0  0  0  0  0
   -0.0354   -2.5852   -0.0000 C   0  0  0  0  0  0  0  0  0  0  0  0
   -2.2783   -1.2631   -0.0000 C   0  0  0  0  0  0  0  0  0  0  0  0
    1.4519   -2.5852   -0.0000 C   0  0  0  0  0  0  0  0  0  0  0  0
   -0.8145   -3.8600   -0.0000 C   0  0  0  0  0  0  0  0  0  0  0  0
   -3.0455   -2.5379   -0.0000 C   0  0  0  0  0  0  0  0  0  0  0  0
   -2.6678    0.1535   -0.0000 C   0  0  0  0  0  0  0  0  0  0  0  0
    2.9393   -2.5852   -0.0000 N   0  0  0  0  0  0  0  0  0  0  0  0
   -2.3255   -3.8364   -0.0000 C   0  0  0  0  0  0  0  0  0  0  0  0
   -4.5565   -2.5143   -0.0000 N   0  0  0  0  0  0  0  0  0  0  0  0
   -5.4654   -3.7066   -0.0000 C   0  0  0  0  0  0  0  0  0  0  0  0
   -5.4418   -1.2867   -0.0000 C   0  0  0  0  0  0  0  0  0  0  0  0
   -5.0287   -5.1231   -0.0000 O   0  0  0  0  0  0  0  0  0  0  0  0
   -6.8938   -3.2226   -0.0000 N   0  0  0  0  0  0  0  0  0  0  0  0
   -4.9815    0.1417   -0.0000 C   0  0  0  0  0  0  0  0  0  0  0  0
   -6.8820   -1.7234   -0.0000 C   0  0  0  0  0  0  0  0  0  0  0  0
   -8.3339   -3.6594   -0.0000 C   0  0  0  0  0  0  0  0  0  0  0  0
   -4.6155    1.6172   -0.0000 F   0  0  0  0  0  0  0  0  0  0  0  0
   -6.3626    0.7673   -0.0000 F   0  0  0  0  0  0  0  0  0  0  0  0
   -3.6240   -0.4604   -0.0000 F   0  0  0  0  0  0  0  0  0  0  0  0
   -8.3103   -1.2395   -0.0000 C   0  0  0  0  0  0  0  0  0  0  0  0
   -9.2192   -2.4317   -0.0000 C   0  0  0  0  0  0  0  0  0  0  0  0
   -8.7707    0.2007   -0.0000 O   0  0  0  0  0  0  0  0  0  0  0  0
  1  2  1  0  0  0  0
  2  3  2  0  0  0  0
  2  4  1  0  0  0  0
  3  5  1  0  0  0  0
  3  6  1  0  0  0  0
  4  7  2  0  0  0  0
  4  8  1  0  0  0  0
  5  9  3  0  0  0  0
  6 10  2  0  0  0  0
  7 11  1  0  0  0  0
 11 12  1  0  0  0  0
 11 13  1  0  0  0  0
 12 14  2  0  0  0  0
 12 15  1  0  0  0  0
 13 16  1  6  0  0  0
 13 17  1  0  0  0  0
 15 18  1  0  0  0  0
 16 19  1  0  0  0  0
 16 20  1  0  0  0  0
 16 21  1  0  0  0  0
 17 22  1  0  0  0  0
 18 23  1  0  0  0  0
 22 24  1  1  0  0  0
  7 10  1  0  0  0  0
 17 15  1  1  0  0  0
 22 23  1  0  0  0  0
M  END
>  <MolRegNo>
381850

>  <m>
=

>  <Value>
1

>  <Unit>
nM

>  <Type>
Ki

>  <pValue>
9

>  <Ligand Efficiency>
0.51

>  <Binding Efficiency>
25.02

>  <Surface Efficiency>
13.32

>  <Assay Index>
288166

>  <Assay Category>


>  <Assay Organism>
Homo sapiens

>  <Target ID>
56

>  <Target Name>
Androgen Receptor

>  <Target Organism>
Homo sapiens

>  <Target Description>
Target is a single protein chain

>  <Sequence Accession>
P10275

>  <Reference>
J Med Chem 50 (13), 3015-3025 (2007)

>  <Pubmed ID>
17552509

>  <DOI>
10.1021/jm070312d

$$$$
381849
Actelion Java MolfileCreator 1.0

 22 24  0  0  1  0  0  0  0  0999 V2000
    0.0000   -0.0000   -0.0000 Cl  0  0  0  0  0  0  0  0  0  0  0  0
   -0.7659   -1.2843   -0.0000 C   0  0  0  0  0  0  0  0  0  0  0  0
   -0.0353   -2.5804   -0.0000 C   0  0  0  0  0  0  0  0  0  0  0  0
   -2.2741   -1.2608   -0.0000 C   0  0  0  0  0  0  0  0  0  0  0  0
    1.4493   -2.5804   -0.0000 C   0  0  0  0  0  0  0  0  0  0  0  0
   -0.8130   -3.8529   -0.0000 C   0  0  0  0  0  0  0  0  0  0  0  0
   -3.0399   -2.5333   -0.0000 C   0  0  0  0  0  0  0  0  0  0  0  0
   -3.0282    0.0471   -0.0000 C   0  0  0  0  0  0  0  0  0  0  0  0
    2.9339   -2.5804   -0.0000 N   0  0  0  0  0  0  0  0  0  0  0  0
   -2.3212   -3.8294   -0.0000 C   0  0  0  0  0  0  0  0  0  0  0  0
   -4.5481   -2.5097   -0.0000 N   0  0  0  0  0  0  0  0  0  0  0  0
   -5.4554   -3.6998   -0.0000 C   0  0  0  0  0  0  0  0  0  0  0  0
   -5.4318   -1.2725   -0.0000 C   0  0  0  0  0  0  0  0  0  0  0  0
   -5.0194   -5.1137   -0.0000 O   0  0  0  0  0  0  0  0  0  0  0  0
   -6.8811   -3.2167   -0.0000 N   0  0  0  0  0  0  0  0  0  0  0  0
   -6.8693   -1.7085   -0.0000 C   0  0  0  0  0  0  0  0  0  0  0  0
   -4.9723    0.1532   -0.0000 C   0  0  0  0  0  0  0  0  0  0  0  0
   -8.3186   -3.6526   -0.0000 C   0  0  0  0  0  0  0  0  0  0  0  0
   -8.2950   -1.2254   -0.0000 C   0  0  0  0  0  0  0  0  0  0  0  0
   -5.9738    1.2843   -0.0000 C   0  0  0  0  0  0  0  0  0  0  0  0
   -9.2023   -2.4272   -0.0000 C   0  0  0  0  0  0  0  0  0  0  0  0
   -8.7546    0.2121   -0.0000 O   0  0  0  0  0  0  0  0  0  0  0  0
  1  2  1  0  0  0  0
  2  3  2  0  0  0  0
  2  4  1  0  0  0  0
  3  5  1  0  0  0  0
  3  6  1  0  0  0  0
  4  7  2  0  0  0  0
  4  8  1  0  0  0  0
  5  9  3  0  0  0  0
  6 10  2  0  0  0  0
  7 11  1  0  0  0  0
 11 12  1  0  0  0  0
 11 13  1  0  0  0  0
 12 14  2  0  0  0  0
 12 15  1  0  0  0  0
 13 16  1  0  0  0  0
 13 17  1  6  0  0  0
 15 18  1  0  0  0  0
 16 19  1  0  0  0  0
 17 20  1  0  0  0  0
 18 21  1  0  0  0  0
 19 22  1  1  0  0  0
  7 10  1  0  0  0  0
 16 15  1  1  0  0  0
 19 21  1  0  0  0  0
M  END
>  <MolRegNo>
381849

>  <m>
=

>  <Value>
0.7

>  <Unit>
nM

>  <Type>
Ki

>  <pValue>
9.15

>  <Ligand Efficiency>
0.57

>  <Binding Efficiency>
28.63

>  <Surface Efficiency>
13.55

>  <Assay Index>
288166

>  <Assay Category>


>  <Assay Organism>
Homo sapiens

>  <Target ID>
56

>  <Target Name>
Androgen Receptor

>  <Target Organism>
Homo sapiens

>  <Target Description>
Target is a single protein chain

>  <Sequence Accession>
P10275

>  <Reference>
J Med Chem 50 (13), 3015-3025 (2007)

>  <Pubmed ID>
17552509

>  <DOI>
10.1021/jm070312d

$$$$
381848
Actelion Java MolfileCreator 1.0

 21 23  0  0  1  0  0  0  0  0999 V2000
    0.0000   -0.0000   -0.0000 Cl  0  0  0  0  0  0  0  0  0  0  0  0
   -0.7668   -1.2859   -0.0000 C   0  0  0  0  0  0  0  0  0  0  0  0
   -0.0354   -2.5835   -0.0000 C   0  0  0  0  0  0  0  0  0  0  0  0
   -2.2768   -1.2623   -0.0000 C   0  0  0  0  0  0  0  0  0  0  0  0
    1.4510   -2.5835   -0.0000 C   0  0  0  0  0  0  0  0  0  0  0  0
   -0.8140   -3.8576   -0.0000 C   0  0  0  0  0  0  0  0  0  0  0  0
   -3.0436   -2.5363   -0.0000 C   0  0  0  0  0  0  0  0  0  0  0  0
   -3.0318    0.0472   -0.0000 C   0  0  0  0  0  0  0  0  0  0  0  0
    2.9374   -2.5835   -0.0000 N   0  0  0  0  0  0  0  0  0  0  0  0
   -2.3240   -3.8340   -0.0000 C   0  0  0  0  0  0  0  0  0  0  0  0
   -4.5536   -2.5127   -0.0000 N   0  0  0  0  0  0  0  0  0  0  0  0
   -5.4620   -3.7042   -0.0000 C   0  0  0  0  0  0  0  0  0  0  0  0
   -5.4384   -1.2859   -0.0000 C   0  0  0  0  0  0  0  0  0  0  0  0
   -5.0255   -5.1199   -0.0000 O   0  0  0  0  0  0  0  0  0  0  0  0
   -6.8894   -3.2206   -0.0000 N   0  0  0  0  0  0  0  0  0  0  0  0
   -6.8776   -1.7224   -0.0000 C   0  0  0  0  0  0  0  0  0  0  0  0
   -4.9783    0.1416   -0.0000 C   0  0  0  0  0  0  0  0  0  0  0  0
   -8.3286   -3.6570   -0.0000 C   0  0  0  0  0  0  0  0  0  0  0  0
   -8.3050   -1.2387   -0.0000 C   0  0  0  0  0  0  0  0  0  0  0  0
   -9.2134   -2.4302   -0.0000 C   0  0  0  0  0  0  0  0  0  0  0  0
   -8.7651    0.2005   -0.0000 O   0  0  0  0  0  0  0  0  0  0  0  0
  1  2  1  0  0  0  0
  2  3  2  0  0  0  0
  2  4  1  0  0  0  0
  3  5  1  0  0  0  0
  3  6  1  0  0  0  0
  4  7  2  0  0  0  0
  4  8  1  0  0  0  0
  5  9  3  0  0  0  0
  6 10  2  0  0  0  0
  7 11  1  0  0  0  0
 11 12  1  0  0  0  0
 11 13  1  0  0  0  0
 12 14  2  0  0  0  0
 12 15  1  0  0  0  0
 13 16  1  0  0  0  0
 13 17  1  6  0  0  0
 15 18  1  0  0  0  0
 16 19  1  0  0  0  0
 18 20  1  0  0  0  0
 19 21  1  1  0  0  0
  7 10  1  0  0  0  0
 16 15  1  1  0  0  0
 19 20  1  0  0  0  0
M  END
>  <MolRegNo>
381848

>  <m>
=

>  <Value>
2.9

>  <Unit>
nM

>  <Type>
Ki

>  <pValue>
8.54

>  <Ligand Efficiency>
0.56

>  <Binding Efficiency>
27.92

>  <Surface Efficiency>
12.64

>  <Assay Index>
288166

>  <Assay Category>


>  <Assay Organism>
Homo sapiens

>  <Target ID>
56

>  <Target Name>
Androgen Receptor

>  <Target Organism>
Homo sapiens

>  <Target Description>
Target is a single protein chain

>  <Sequence Accession>
P10275

>  <Reference>
J Med Chem 50 (13), 3015-3025 (2007)

>  <Pubmed ID>
17552509

>  <DOI>
10.1021/jm070312d

$$$$
381847
Actelion Java MolfileCreator 1.0

 24 26  0  0  1  0  0  0  0  0999 V2000
    0.0000   -0.0000   -0.0000 Cl  0  0  0  0  0  0  0  0  0  0  0  0
   -0.7640   -1.2645   -0.0000 C   0  0  0  0  0  0  0  0  0  0  0  0
   -0.0395   -2.5553   -0.0000 C   0  0  0  0  0  0  0  0  0  0  0  0
   -2.2655   -1.2381   -0.0000 C   0  0  0  0  0  0  0  0  0  0  0  0
    1.4357   -2.5553   -0.0000 C   0  0  0  0  0  0  0  0  0  0  0  0
   -0.8035   -3.8198   -0.0000 C   0  0  0  0  0  0  0  0  0  0  0  0
   -3.0163   -2.5026   -0.0000 C   0  0  0  0  0  0  0  0  0  0  0  0
   -2.7134    0.4478   -0.0000 C   0  0  0  0  0  0  0  0  0  0  0  0
    2.9110   -2.5553   -0.0000 N   0  0  0  0  0  0  0  0  0  0  0  0
   -2.3051   -3.7935   -0.0000 C   0  0  0  0  0  0  0  0  0  0  0  0
   -4.5179   -2.4763   -0.0000 N   0  0  0  0  0  0  0  0  0  0  0  0
   -5.4136   -3.6618   -0.0000 C   0  0  0  0  0  0  0  0  0  0  0  0
   -5.3873   -1.2513   -0.0000 C   0  0  0  0  0  0  0  0  0  0  0  0
   -4.9789   -5.0711   -0.0000 O   0  0  0  0  0  0  0  0  0  0  0  0
   -6.8362   -3.1744   -0.0000 N   0  0  0  0  0  0  0  0  0  0  0  0
   -4.9262    0.1712   -0.0000 C   0  0  0  0  0  0  0  0  0  0  0  0
   -6.8230   -1.6860   -0.0000 C   0  0  0  0  0  0  0  0  0  0  0  0
   -8.2587   -3.6091   -0.0000 C   0  0  0  0  0  0  0  0  0  0  0  0
   -6.3620    0.6059   -0.0000 F   0  0  0  0  0  0  0  0  0  0  0  0
   -4.5574    1.6333   -0.0000 F   0  0  0  0  0  0  0  0  0  0  0  0
   -3.5169   -0.2371   -0.0000 F   0  0  0  0  0  0  0  0  0  0  0  0
   -8.2455   -1.1986   -0.0000 C   0  0  0  0  0  0  0  0  0  0  0  0
   -9.1412   -2.3973   -0.0000 C   0  0  0  0  0  0  0  0  0  0  0  0
   -8.7066    0.2371   -0.0000 O   0  0  0  0  0  0  0  0  0  0  0  0
  1  2  1  0  0  0  0
  2  3  2  0  0  0  0
  2  4  1  0  0  0  0
  3  5  1  0  0  0  0
  3  6  1  0  0  0  0
  4  7  2  0  0  0  0
  4  8  1  0  0  0  0
  5  9  3  0  0  0  0
  6 10  2  0  0  0  0
  7 11  1  0  0  0  0
 11 12  1  0  0  0  0
 11 13  1  0  0  0  0
 12 14  2  0  0  0  0
 12 15  1  0  0  0  0
 13 16  1  1  0  0  0
 13 17  1  0  0  0  0
 15 18  1  0  0  0  0
 16 19  1  0  0  0  0
 16 20  1  0  0  0  0
 16 21  1  0  0  0  0
 17 22  1  0  0  0  0
 18 23  1  0  0  0  0
 22 24  1  6  0  0  0
  7 10  1  0  0  0  0
 17 15  1  1  0  0  0
 22 23  1  0  0  0  0
M  END
>  <MolRegNo>
381847

>  <m>
=

>  <Value>
1.9

>  <Unit>
nM

>  <Type>
Ki

>  <pValue>
8.72

>  <Ligand Efficiency>
0.5

>  <Binding Efficiency>
24.24

>  <Surface Efficiency>
12.91

>  <Assay Index>
288166

>  <Assay Category>


>  <Assay Organism>
Homo sapiens

>  <Target ID>
56

>  <Target Name>
Androgen Receptor

>  <Target Organism>
Homo sapiens

>  <Target Description>
Target is a single protein chain

>  <Sequence Accession>
P10275

>  <Reference>
J Med Chem 50 (13), 3015-3025 (2007)

>  <Pubmed ID>
17552509

>  <DOI>
10.1021/jm070312d

$$$$
381846
Actelion Java MolfileCreator 1.0

 22 24  0  0  1  0  0  0  0  0999 V2000
    0.0000   -0.0000   -0.0000 Cl  0  0  0  0  0  0  0  0  0  0  0  0
   -0.7665   -1.2854   -0.0000 C   0  0  0  0  0  0  0  0  0  0  0  0
   -0.0354   -2.5826   -0.0000 C   0  0  0  0  0  0  0  0  0  0  0  0
   -2.2760   -1.2618   -0.0000 C   0  0  0  0  0  0  0  0  0  0  0  0
    1.4505   -2.5826   -0.0000 C   0  0  0  0  0  0  0  0  0  0  0  0
   -0.8137   -3.8562   -0.0000 C   0  0  0  0  0  0  0  0  0  0  0  0
   -3.0425   -2.5354   -0.0000 C   0  0  0  0  0  0  0  0  0  0  0  0
   -3.0307    0.0472   -0.0000 C   0  0  0  0  0  0  0  0  0  0  0  0
    2.9364   -2.5826   -0.0000 N   0  0  0  0  0  0  0  0  0  0  0  0
   -2.3232   -3.8327   -0.0000 C   0  0  0  0  0  0  0  0  0  0  0  0
   -4.5520   -2.5119   -0.0000 N   0  0  0  0  0  0  0  0  0  0  0  0
   -5.4601   -3.7029   -0.0000 C   0  0  0  0  0  0  0  0  0  0  0  0
   -5.4365   -1.2854   -0.0000 C   0  0  0  0  0  0  0  0  0  0  0  0
   -5.0237   -5.1181   -0.0000 O   0  0  0  0  0  0  0  0  0  0  0  0
   -6.8870   -3.2194   -0.0000 N   0  0  0  0  0  0  0  0  0  0  0  0
   -6.8752   -1.7217   -0.0000 C   0  0  0  0  0  0  0  0  0  0  0  0
   -4.9766    0.1415   -0.0000 C   0  0  0  0  0  0  0  0  0  0  0  0
   -8.3257   -3.6558   -0.0000 C   0  0  0  0  0  0  0  0  0  0  0  0
   -8.3021   -1.2382   -0.0000 C   0  0  0  0  0  0  0  0  0  0  0  0
   -5.9789    1.2736   -0.0000 C   0  0  0  0  0  0  0  0  0  0  0  0
   -9.2102   -2.4293   -0.0000 C   0  0  0  0  0  0  0  0  0  0  0  0
   -8.7620    0.2005   -0.0000 O   0  0  0  0  0  0  0  0  0  0  0  0
  1  2  1  0  0  0  0
  2  3  2  0  0  0  0
  2  4  1  0  0  0  0
  3  5  1  0  0  0  0
  3  6  1  0  0  0  0
  4  7  2  0  0  0  0
  4  8  1  0  0  0  0
  5  9  3  0  0  0  0
  6 10  2  0  0  0  0
  7 11  1  0  0  0  0
 11 12  1  0  0  0  0
 11 13  1  0  0  0  0
 12 14  2  0  0  0  0
 12 15  1  0  0  0  0
 13 16  1  0  0  0  0
 13 17  1  1  0  0  0
 15 18  1  0  0  0  0
 16 19  1  0  0  0  0
 17 20  1  0  0  0  0
 18 21  1  0  0  0  0
 19 22  1  6  0  0  0
  7 10  1  0  0  0  0
 16 15  1  1  0  0  0
 19 21  1  0  0  0  0
M  END
>  <MolRegNo>
381846

>  <m>
=

>  <Value>
1.6

>  <Unit>
nM

>  <Type>
Ki

>  <pValue>
8.8

>  <Ligand Efficiency>
0.55

>  <Binding Efficiency>
27.51

>  <Surface Efficiency>
13.02

>  <Assay Index>
288166

>  <Assay Category>


>  <Assay Organism>
Homo sapiens

>  <Target ID>
56

>  <Target Name>
Androgen Receptor

>  <Target Organism>
Homo sapiens

>  <Target Description>
Target is a single protein chain

>  <Sequence Accession>
P10275

>  <Reference>
J Med Chem 50 (13), 3015-3025 (2007)

>  <Pubmed ID>
17552509

>  <DOI>
10.1021/jm070312d

$$$$
381845
Actelion Java MolfileCreator 1.0

 21 23  0  0  1  0  0  0  0  0999 V2000
    0.0000   -0.0000   -0.0000 Cl  0  0  0  0  0  0  0  0  0  0  0  0
   -0.7668   -1.2859   -0.0000 C   0  0  0  0  0  0  0  0  0  0  0  0
   -0.0354   -2.5835   -0.0000 C   0  0  0  0  0  0  0  0  0  0  0  0
   -2.2768   -1.2623   -0.0000 C   0  0  0  0  0  0  0  0  0  0  0  0
    1.4510   -2.5835   -0.0000 C   0  0  0  0  0  0  0  0  0  0  0  0
   -0.8140   -3.8576   -0.0000 C   0  0  0  0  0  0  0  0  0  0  0  0
   -3.0436   -2.5363   -0.0000 C   0  0  0  0  0  0  0  0  0  0  0  0
   -3.0318    0.0472   -0.0000 C   0  0  0  0  0  0  0  0  0  0  0  0
    2.9374   -2.5835   -0.0000 N   0  0  0  0  0  0  0  0  0  0  0  0
   -2.3240   -3.8340   -0.0000 C   0  0  0  0  0  0  0  0  0  0  0  0
   -4.5536   -2.5127   -0.0000 N   0  0  0  0  0  0  0  0  0  0  0  0
   -5.4620   -3.7042   -0.0000 C   0  0  0  0  0  0  0  0  0  0  0  0
   -5.4384   -1.2859   -0.0000 C   0  0  0  0  0  0  0  0  0  0  0  0
   -5.0255   -5.1199   -0.0000 O   0  0  0  0  0  0  0  0  0  0  0  0
   -6.8894   -3.2206   -0.0000 N   0  0  0  0  0  0  0  0  0  0  0  0
   -6.8776   -1.7224   -0.0000 C   0  0  0  0  0  0  0  0  0  0  0  0
   -4.9783    0.1416   -0.0000 C   0  0  0  0  0  0  0  0  0  0  0  0
   -8.3286   -3.6570   -0.0000 C   0  0  0  0  0  0  0  0  0  0  0  0
   -8.3050   -1.2387   -0.0000 C   0  0  0  0  0  0  0  0  0  0  0  0
   -9.2134   -2.4302   -0.0000 C   0  0  0  0  0  0  0  0  0  0  0  0
   -8.7651    0.2005   -0.0000 O   0  0  0  0  0  0  0  0  0  0  0  0
  1  2  1  0  0  0  0
  2  3  2  0  0  0  0
  2  4  1  0  0  0  0
  3  5  1  0  0  0  0
  3  6  1  0  0  0  0
  4  7  2  0  0  0  0
  4  8  1  0  0  0  0
  5  9  3  0  0  0  0
  6 10  2  0  0  0  0
  7 11  1  0  0  0  0
 11 12  1  0  0  0  0
 11 13  1  0  0  0  0
 12 14  2  0  0  0  0
 12 15  1  0  0  0  0
 13 16  1  0  0  0  0
 13 17  1  1  0  0  0
 15 18  1  0  0  0  0
 16 19  1  0  0  0  0
 18 20  1  0  0  0  0
 19 21  1  6  0  0  0
  7 10  1  0  0  0  0
 16 15  1  1  0  0  0
 19 20  1  0  0  0  0
M  END
>  <MolRegNo>
381845

>  <m>
=

>  <Value>
4

>  <Unit>
nM

>  <Type>
Ki

>  <pValue>
8.4

>  <Ligand Efficiency>
0.55

>  <Binding Efficiency>
27.46

>  <Surface Efficiency>
12.43

>  <Assay Index>
288166

>  <Assay Category>


>  <Assay Organism>
Homo sapiens

>  <Target ID>
56

>  <Target Name>
Androgen Receptor

>  <Target Organism>
Homo sapiens

>  <Target Description>
Target is a single protein chain

>  <Sequence Accession>
P10275

>  <Reference>
J Med Chem 50 (13), 3015-3025 (2007)

>  <Pubmed ID>
17552509

>  <DOI>
10.1021/jm070312d

$$$$
381844
Actelion Java MolfileCreator 1.0

 24 26  0  0  1  0  0  0  0  0999 V2000
    0.0000   -0.0000   -0.0000 Cl  0  0  0  0  0  0  0  0  0  0  0  0
   -0.7745   -1.2779   -0.0000 C   0  0  0  0  0  0  0  0  0  0  0  0
   -0.0387   -2.5817   -0.0000 C   0  0  0  0  0  0  0  0  0  0  0  0
   -2.2848   -1.2521   -0.0000 C   0  0  0  0  0  0  0  0  0  0  0  0
    1.4457   -2.5817   -0.0000 C   0  0  0  0  0  0  0  0  0  0  0  0
   -0.8132   -3.8596   -0.0000 C   0  0  0  0  0  0  0  0  0  0  0  0
   -3.0463   -2.5300   -0.0000 C   0  0  0  0  0  0  0  0  0  0  0  0
   -2.7365    0.4002   -0.0000 C   0  0  0  0  0  0  0  0  0  0  0  0
    2.9302   -2.5817   -0.0000 N   0  0  0  0  0  0  0  0  0  0  0  0
   -2.3235   -3.8338   -0.0000 C   0  0  0  0  0  0  0  0  0  0  0  0
   -4.5566   -2.5042   -0.0000 N   0  0  0  0  0  0  0  0  0  0  0  0
   -5.4602   -3.7047   -0.0000 C   0  0  0  0  0  0  0  0  0  0  0  0
   -5.4473   -1.2650   -0.0000 C   0  0  0  0  0  0  0  0  0  0  0  0
   -5.0213   -5.1246   -0.0000 O   0  0  0  0  0  0  0  0  0  0  0  0
   -6.8930   -3.2142   -0.0000 N   0  0  0  0  0  0  0  0  0  0  0  0
   -4.9826    0.1678   -0.0000 C   0  0  0  0  0  0  0  0  0  0  0  0
   -6.8930   -1.7039   -0.0000 C   0  0  0  0  0  0  0  0  0  0  0  0
   -8.3387   -3.6530   -0.0000 C   0  0  0  0  0  0  0  0  0  0  0  0
   -6.3121    0.7874   -0.0000 F   0  0  0  0  0  0  0  0  0  0  0  0
   -4.6082    1.6393   -0.0000 F   0  0  0  0  0  0  0  0  0  0  0  0
   -3.8079   -0.1162   -0.0000 F   0  0  0  0  0  0  0  0  0  0  0  0
   -8.3258   -1.2134   -0.0000 C   0  0  0  0  0  0  0  0  0  0  0  0
   -9.2294   -2.4268   -0.0000 C   0  0  0  0  0  0  0  0  0  0  0  0
   -8.7905    0.2323   -0.0000 O   0  0  0  0  0  0  0  0  0  0  0  0
  1  2  1  0  0  0  0
  2  3  2  0  0  0  0
  2  4  1  0  0  0  0
  3  5  1  0  0  0  0
  3  6  1  0  0  0  0
  4  7  2  0  0  0  0
  4  8  1  0  0  0  0
  5  9  3  0  0  0  0
  6 10  2  0  0  0  0
  7 11  1  0  0  0  0
 11 12  1  0  0  0  0
 11 13  1  0  0  0  0
 12 14  2  0  0  0  0
 12 15  1  0  0  0  0
 13 16  1  6  0  0  0
 13 17  1  0  0  0  0
 15 18  1  0  0  0  0
 16 19  1  0  0  0  0
 16 20  1  0  0  0  0
 16 21  1  0  0  0  0
 17 22  1  0  0  0  0
 18 23  1  0  0  0  0
 22 24  1  6  0  0  0
  7 10  1  0  0  0  0
 17 15  1  1  0  0  0
 22 23  1  0  0  0  0
M  END
>  <MolRegNo>
381844

>  <m>
=

>  <Value>
0.9

>  <Unit>
nM

>  <Type>
Ki

>  <pValue>
9.05

>  <Ligand Efficiency>
0.51

>  <Binding Efficiency>
25.15

>  <Surface Efficiency>
13.39

>  <Assay Index>
288166

>  <Assay Category>


>  <Assay Organism>
Homo sapiens

>  <Target ID>
56

>  <Target Name>
Androgen Receptor

>  <Target Organism>
Homo sapiens

>  <Target Description>
Target is a single protein chain

>  <Sequence Accession>
P10275

>  <Reference>
J Med Chem 50 (13), 3015-3025 (2007)

>  <Pubmed ID>
17552509

>  <DOI>
10.1021/jm070312d

$$$$
381843
Actelion Java MolfileCreator 1.0

 22 24  0  0  0  0  0  0  0  0999 V2000
    0.0000   -0.0000   -0.0000 Cl  0  0  0  0  0  0  0  0  0  0  0  0
   -0.7880    1.2937   -0.0000 C   0  0  0  0  0  0  0  0  0  0  0  0
   -0.0823    2.6110   -0.0000 C   0  0  0  0  0  0  0  0  0  0  0  0
   -2.2934    1.2702   -0.0000 C   0  0  0  0  0  0  0  0  0  0  0  0
    1.3996    2.6462   -0.0000 C   0  0  0  0  0  0  0  0  0  0  0  0
   -0.8703    3.9047   -0.0000 C   0  0  0  0  0  0  0  0  0  0  0  0
   -3.0696    2.5639   -0.0000 C   0  0  0  0  0  0  0  0  0  0  0  0
   -3.0344   -0.0235   -0.0000 C   0  0  0  0  0  0  0  0  0  0  0  0
    2.8815    2.6933   -0.0000 N   0  0  0  0  0  0  0  0  0  0  0  0
   -2.3757    3.8812   -0.0000 C   0  0  0  0  0  0  0  0  0  0  0  0
   -4.5751    2.5404   -0.0000 N   0  0  0  0  0  0  0  0  0  0  0  0
   -5.4454    1.3290   -0.0000 C   0  0  0  0  0  0  0  0  0  0  0  0
   -5.4924    3.7400   -0.0000 C   0  0  0  0  0  0  0  0  0  0  0  0
   -4.9632   -0.0706   -0.0000 O   0  0  0  0  0  0  0  0  0  0  0  0
   -6.8920    1.7759   -0.0000 N   0  0  0  0  0  0  0  0  0  0  0  0
   -6.9155    3.2578   -0.0000 C   0  0  0  0  0  0  0  0  0  0  0  0
   -5.0690    5.1866   -0.0000 C   0  0  0  0  0  0  0  0  0  0  0  0
   -8.3151    1.2937   -0.0000 C   0  0  0  0  0  0  0  0  0  0  0  0
   -8.3621    3.7047   -0.0000 C   0  0  0  0  0  0  0  0  0  0  0  0
   -3.6224    5.5395   -0.0000 C   0  0  0  0  0  0  0  0  0  0  0  0
   -9.2324    2.4933   -0.0000 C   0  0  0  0  0  0  0  0  0  0  0  0
   -8.8678    5.1278   -0.0000 O   0  0  0  0  0  0  0  0  0  0  0  0
  1  2  1  0  0  0  0
  2  3  2  0  0  0  0
  2  4  1  0  0  0  0
  3  5  1  0  0  0  0
  3  6  1  0  0  0  0
  4  7  2  0  0  0  0
  4  8  1  0  0  0  0
  5  9  3  0  0  0  0
  6 10  2  0  0  0  0
  7 11  1  0  0  0  0
 11 12  1  0  0  0  0
 11 13  1  0  0  0  0
 12 14  2  0  0  0  0
 12 15  1  0  0  0  0
 13 16  1  0  0  0  0
 13 17  1  1  0  0  0
 15 18  1  0  0  0  0
 16 19  1  0  0  0  0
 17 20  1  0  0  0  0
 18 21  1  0  0  0  0
 19 22  1  1  0  0  0
  7 10  1  0  0  0  0
 16 15  1  6  0  0  0
 19 21  1  0  0  0  0
M  END
>  <MolRegNo>
381843

>  <m>
=

>  <Value>
0.9

>  <Unit>
nM

>  <Type>
Ki

>  <pValue>
9.05

>  <Ligand Efficiency>
0.56

>  <Binding Efficiency>
28.29

>  <Surface Efficiency>
13.39

>  <Assay Index>
288166

>  <Assay Category>


>  <Assay Organism>
Homo sapiens

>  <Target ID>
56

>  <Target Name>
Androgen Receptor

>  <Target Organism>
Homo sapiens

>  <Target Description>
Target is a single protein chain

>  <Sequence Accession>
P10275

>  <Reference>
J Med Chem 50 (13), 3015-3025 (2007)

>  <Pubmed ID>
17552509

>  <DOI>
10.1021/jm070312d

$$$$
381842
Actelion Java MolfileCreator 1.0

 21 23  0  0  0  0  0  0  0  0999 V2000
    0.0000   -0.0000   -0.0000 Cl  0  0  0  0  0  0  0  0  0  0  0  0
   -0.7637    1.3042   -0.0000 C   0  0  0  0  0  0  0  0  0  0  0  0
   -0.0352    2.6201   -0.0000 C   0  0  0  0  0  0  0  0  0  0  0  0
   -2.2677    1.3042   -0.0000 C   0  0  0  0  0  0  0  0  0  0  0  0
    1.4452    2.6436   -0.0000 C   0  0  0  0  0  0  0  0  0  0  0  0
   -0.8107    3.9243   -0.0000 C   0  0  0  0  0  0  0  0  0  0  0  0
   -3.0314    2.6084   -0.0000 C   0  0  0  0  0  0  0  0  0  0  0  0
   -3.0196    0.0235   -0.0000 C   0  0  0  0  0  0  0  0  0  0  0  0
    2.9256    2.6671   -0.0000 N   0  0  0  0  0  0  0  0  0  0  0  0
   -2.3147    3.9243   -0.0000 C   0  0  0  0  0  0  0  0  0  0  0  0
   -4.5353    2.5966   -0.0000 N   0  0  0  0  0  0  0  0  0  0  0  0
   -5.4048    1.3864   -0.0000 C   0  0  0  0  0  0  0  0  0  0  0  0
   -5.4518    3.7951   -0.0000 C   0  0  0  0  0  0  0  0  0  0  0  0
   -4.9230   -0.0117   -0.0000 O   0  0  0  0  0  0  0  0  0  0  0  0
   -6.8500    1.8329   -0.0000 N   0  0  0  0  0  0  0  0  0  0  0  0
   -6.8735    3.3134   -0.0000 C   0  0  0  0  0  0  0  0  0  0  0  0
   -5.0288    5.2403   -0.0000 C   0  0  0  0  0  0  0  0  0  0  0  0
   -8.2717    1.3512   -0.0000 C   0  0  0  0  0  0  0  0  0  0  0  0
   -8.3186    3.7598   -0.0000 C   0  0  0  0  0  0  0  0  0  0  0  0
   -9.1881    2.5496   -0.0000 C   0  0  0  0  0  0  0  0  0  0  0  0
   -8.8239    5.1815   -0.0000 O   0  0  0  0  0  0  0  0  0  0  0  0
  1  2  1  0  0  0  0
  2  3  2  0  0  0  0
  2  4  1  0  0  0  0
  3  5  1  0  0  0  0
  3  6  1  0  0  0  0
  4  7  2  0  0  0  0
  4  8  1  0  0  0  0
  5  9  3  0  0  0  0
  6 10  2  0  0  0  0
  7 11  1  0  0  0  0
 11 12  1  0  0  0  0
 11 13  1  0  0  0  0
 12 14  2  0  0  0  0
 12 15  1  0  0  0  0
 13 16  1  0  0  0  0
 13 17  1  1  0  0  0
 15 18  1  0  0  0  0
 16 19  1  0  0  0  0
 18 20  1  0  0  0  0
 19 21  1  1  0  0  0
  7 10  1  0  0  0  0
 16 15  1  6  0  0  0
 19 20  1  0  0  0  0
M  END
>  <MolRegNo>
381842

>  <m>
=

>  <Value>
1.5

>  <Unit>
nM

>  <Type>
Ki

>  <pValue>
8.82

>  <Ligand Efficiency>
0.57

>  <Binding Efficiency>
28.86

>  <Surface Efficiency>
13.06

>  <Assay Index>
288166

>  <Assay Category>


>  <Assay Organism>
Homo sapiens

>  <Target ID>
56

>  <Target Name>
Androgen Receptor

>  <Target Organism>
Homo sapiens

>  <Target Description>
Target is a single protein chain

>  <Sequence Accession>
P10275

>  <Reference>
J Med Chem 50 (13), 3015-3025 (2007)

>  <Pubmed ID>
17552509

>  <DOI>
10.1021/jm070312d

$$$$
381841
Actelion Java MolfileCreator 1.0

 20 22  0  0  1  0  0  0  0  0999 V2000
    0.0000   -0.0000   -0.0000 Cl  0  0  0  0  0  0  0  0  0  0  0  0
   -0.7661   -1.2847   -0.0000 C   0  0  0  0  0  0  0  0  0  0  0  0
   -0.0354   -2.5811   -0.0000 C   0  0  0  0  0  0  0  0  0  0  0  0
   -2.2747   -1.2611   -0.0000 C   0  0  0  0  0  0  0  0  0  0  0  0
    1.4497   -2.5811   -0.0000 C   0  0  0  0  0  0  0  0  0  0  0  0
   -0.8132   -3.8540   -0.0000 C   0  0  0  0  0  0  0  0  0  0  0  0
   -3.0407   -2.5340   -0.0000 C   0  0  0  0  0  0  0  0  0  0  0  0
   -3.0290    0.0471   -0.0000 C   0  0  0  0  0  0  0  0  0  0  0  0
    2.9347   -2.5811   -0.0000 N   0  0  0  0  0  0  0  0  0  0  0  0
   -2.3218   -3.8304   -0.0000 C   0  0  0  0  0  0  0  0  0  0  0  0
   -4.5493   -2.5104   -0.0000 N   0  0  0  0  0  0  0  0  0  0  0  0
   -5.4568   -3.7008   -0.0000 C   0  0  0  0  0  0  0  0  0  0  0  0
   -5.4333   -1.2729   -0.0000 C   0  0  0  0  0  0  0  0  0  0  0  0
   -5.0208   -5.1151   -0.0000 O   0  0  0  0  0  0  0  0  0  0  0  0
   -6.8829   -3.2175   -0.0000 C   0  0  0  0  0  0  0  0  0  0  0  0
   -6.8711   -1.7089   -0.0000 C   0  0  0  0  0  0  0  0  0  0  0  0
   -8.3208   -3.6536   -0.0000 C   0  0  0  0  0  0  0  0  0  0  0  0
   -8.2972   -1.2257   -0.0000 C   0  0  0  0  0  0  0  0  0  0  0  0
   -9.2047   -2.4279   -0.0000 C   0  0  0  0  0  0  0  0  0  0  0  0
   -8.7569    0.2121   -0.0000 O   0  0  0  0  0  0  0  0  0  0  0  0
  1  2  1  0  0  0  0
  2  3  2  0  0  0  0
  2  4  1  0  0  0  0
  3  5  1  0  0  0  0
  3  6  1  0  0  0  0
  4  7  2  0  0  0  0
  4  8  1  0  0  0  0
  5  9  3  0  0  0  0
  6 10  2  0  0  0  0
  7 11  1  0  0  0  0
 11 12  1  0  0  0  0
 11 13  1  0  0  0  0
 12 14  2  0  0  0  0
 12 15  1  0  0  0  0
 16 13  1  1  0  0  0
 15 17  1  1  0  0  0
 16 18  1  0  0  0  0
 17 19  1  0  0  0  0
 18 20  1  1  0  0  0
  7 10  1  0  0  0  0
 15 16  1  0  0  0  0
 18 19  1  0  0  0  0
M  END
>  <MolRegNo>
381841

>  <m>
=

>  <Value>
2.2

>  <Unit>
nM

>  <Type>
Ki

>  <pValue>
8.66

>  <Ligand Efficiency>
0.59

>  <Binding Efficiency>
29.78

>  <Surface Efficiency>
13.46

>  <Assay Index>
288166

>  <Assay Category>


>  <Assay Organism>
Homo sapiens

>  <Target ID>
56

>  <Target Name>
Androgen Receptor

>  <Target Organism>
Homo sapiens

>  <Target Description>
Target is a single protein chain

>  <Sequence Accession>
P10275

>  <Reference>
J Med Chem 50 (13), 3015-3025 (2007)

>  <Pubmed ID>
17552509

>  <DOI>
10.1021/jm070312d

$$$$
381840
Actelion Java MolfileCreator 1.0

 20 22  0  0  0  0  0  0  0  0999 V2000
    0.0000   -0.0000   -0.0000 Cl  0  0  0  0  0  0  0  0  0  0  0  0
   -0.7879    1.2936   -0.0000 C   0  0  0  0  0  0  0  0  0  0  0  0
   -0.0823    2.6107   -0.0000 C   0  0  0  0  0  0  0  0  0  0  0  0
   -2.2932    1.2701   -0.0000 C   0  0  0  0  0  0  0  0  0  0  0  0
    1.3994    2.6459   -0.0000 C   0  0  0  0  0  0  0  0  0  0  0  0
   -0.8702    3.9042   -0.0000 C   0  0  0  0  0  0  0  0  0  0  0  0
   -3.0693    2.5636   -0.0000 C   0  0  0  0  0  0  0  0  0  0  0  0
   -3.0340   -0.0235   -0.0000 C   0  0  0  0  0  0  0  0  0  0  0  0
    2.8811    2.6930   -0.0000 N   0  0  0  0  0  0  0  0  0  0  0  0
   -2.3755    3.8807   -0.0000 C   0  0  0  0  0  0  0  0  0  0  0  0
   -4.5745    2.5401   -0.0000 N   0  0  0  0  0  0  0  0  0  0  0  0
   -5.4448    1.3289   -0.0000 C   0  0  0  0  0  0  0  0  0  0  0  0
   -5.4918    3.7396   -0.0000 C   0  0  0  0  0  0  0  0  0  0  0  0
   -4.9626   -0.0706   -0.0000 O   0  0  0  0  0  0  0  0  0  0  0  0
   -6.8912    1.7757   -0.0000 N   0  0  0  0  0  0  0  0  0  0  0  0
   -6.9147    3.2575   -0.0000 C   0  0  0  0  0  0  0  0  0  0  0  0
   -8.3141    1.2936   -0.0000 C   0  0  0  0  0  0  0  0  0  0  0  0
   -8.3612    3.7043   -0.0000 C   0  0  0  0  0  0  0  0  0  0  0  0
   -9.2314    2.4931   -0.0000 C   0  0  0  0  0  0  0  0  0  0  0  0
   -8.8669    5.1273   -0.0000 O   0  0  0  0  0  0  0  0  0  0  0  0
  1  2  1  0  0  0  0
  2  3  2  0  0  0  0
  2  4  1  0  0  0  0
  3  5  1  0  0  0  0
  3  6  1  0  0  0  0
  4  7  2  0  0  0  0
  4  8  1  0  0  0  0
  5  9  3  0  0  0  0
  6 10  2  0  0  0  0
  7 11  1  0  0  0  0
 11 12  1  0  0  0  0
 11 13  1  0  0  0  0
 12 14  2  0  0  0  0
 12 15  1  0  0  0  0
 13 16  1  0  0  0  0
 15 17  1  0  0  0  0
 16 18  1  0  0  0  0
 17 19  1  0  0  0  0
 18 20  1  6  0  0  0
  7 10  1  0  0  0  0
 16 15  1  6  0  0  0
 18 19  1  0  0  0  0
M  END
>  <MolRegNo>
381840

>  <m>
=

>  <Value>
2

>  <Unit>
nM

>  <Type>
Ki

>  <pValue>
8.7

>  <Ligand Efficiency>
0.59

>  <Binding Efficiency>
29.82

>  <Surface Efficiency>
12.87

>  <Assay Index>
288166

>  <Assay Category>


>  <Assay Organism>
Homo sapiens

>  <Target ID>
56

>  <Target Name>
Androgen Receptor

>  <Target Organism>
Homo sapiens

>  <Target Description>
Target is a single protein chain

>  <Sequence Accession>
P10275

>  <Reference>
J Med Chem 50 (13), 3015-3025 (2007)

>  <Pubmed ID>
17552509

>  <DOI>
10.1021/jm070312d

$$$$
389286
Actelion Java MolfileCreator 1.0

 32 36  0  0  0  0  0  0  0  0999 V2000
    0.0000   -0.0000   -0.0000 S   0  0  0  0  0  0  0  0  0  0  0  0
    1.2144   -0.8691   -0.0000 C   0  0  0  0  0  0  0  0  0  0  0  0
    0.4524    1.4406   -0.0000 C   0  0  0  0  0  0  0  0  0  0  0  0
    2.4169    0.0119   -0.0000 C   0  0  0  0  0  0  0  0  0  0  0  0
    1.2025   -2.3574   -0.0000 C   0  0  0  0  0  0  0  0  0  0  0  0
    1.9407    1.4525   -0.0000 C   0  0  0  0  0  0  0  0  0  0  0  0
    3.8337   -0.4405   -0.0000 C   0  0  0  0  0  0  0  0  0  0  0  0
   -0.1191   -3.0955   -0.0000 C   0  0  0  0  0  0  0  0  0  0  0  0
    4.9410    0.5715   -0.0000 O   0  0  0  0  0  0  0  0  0  0  0  0
   -1.4406   -2.3217   -0.0000 O   0  0  0  0  0  0  0  0  0  0  0  0
   -0.1310   -4.5957   -0.0000 C   0  0  0  0  0  0  0  0  0  0  0  0
   -2.7622   -3.0717   -0.0000 C   0  0  0  0  0  0  0  0  0  0  0  0
    1.1549   -5.3339   -0.0000 C   0  0  0  0  0  0  0  0  0  0  0  0
   -1.4525   -5.3219   -0.0000 C   0  0  0  0  0  0  0  0  0  0  0  0
   -2.7741   -4.5719   -0.0000 C   0  0  0  0  0  0  0  0  0  0  0  0
   -4.0837   -2.3098   -0.0000 C   0  0  0  0  0  0  0  0  0  0  0  0
    1.1430   -6.8221   -0.0000 C   0  0  0  0  0  0  0  0  0  0  0  0
    2.4288   -4.5838   -0.0000 C   0  0  0  0  0  0  0  0  0  0  0  0
   -1.4763   -6.8102   -0.0000 C   0  0  0  0  0  0  0  0  0  0  0  0
   -4.0837   -5.3100   -0.0000 C   0  0  0  0  0  0  0  0  0  0  0  0
   -5.3934   -3.0598   -0.0000 C   0  0  0  0  0  0  0  0  0  0  0  0
    2.4288   -7.5603   -0.0000 N   0  0  0  0  0  0  0  0  0  0  0  0
   -0.1786   -7.5722   -0.0000 C   0  0  0  0  0  0  0  0  0  0  0  0
    3.7146   -5.3100   -0.0000 C   0  0  0  0  0  0  0  0  0  0  0  0
    2.4169   -3.0717   -0.0000 C   0  0  0  0  0  0  0  0  0  0  0  0
   -4.0956   -6.7983   -0.0000 O   0  0  0  0  0  0  0  0  0  0  0  0
   -5.3934   -4.5481   -0.0000 C   0  0  0  0  0  0  0  0  0  0  0  0
    3.7146   -6.7983   -0.0000 C   0  0  0  0  0  0  0  0  0  0  0  0
   -5.4053   -7.5365   -0.0000 C   0  0  0  0  0  0  0  0  0  0  0  0
   -6.7030   -5.2862   -0.0000 O   0  0  0  0  0  0  0  0  0  0  0  0
    4.9886   -6.0244   -0.0000 C   0  0  0  0  0  0  0  0  0  0  0  0
    3.7146   -8.2865   -0.0000 C   0  0  0  0  0  0  0  0  0  0  0  0
  1  2  1  0  0  0  0
  1  3  1  0  0  0  0
  2  4  2  0  0  0  0
  2  5  1  0  0  0  0
  3  6  2  0  0  0  0
  4  7  1  0  0  0  0
  5  8  2  0  0  0  0
  7  9  1  0  0  0  0
  8 10  1  0  0  0  0
  8 11  1  0  0  0  0
 10 12  1  0  0  0  0
 11 13  2  0  0  0  0
 11 14  1  0  0  0  0
 12 15  2  0  0  0  0
 12 16  1  0  0  0  0
 13 17  1  0  0  0  0
 13 18  1  0  0  0  0
 14 19  2  0  0  0  0
 15 20  1  0  0  0  0
 16 21  2  0  0  0  0
 17 22  1  0  0  0  0
 17 23  2  0  0  0  0
 18 24  2  0  0  0  0
 18 25  1  0  0  0  0
 20 26  1  0  0  0  0
 20 27  2  0  0  0  0
 22 28  1  0  0  0  0
 26 29  1  0  0  0  0
 27 30  1  0  0  0  0
 28 31  1  0  0  0  0
 28 32  1  0  0  0  0
  4  6  1  0  0  0  0
 14 15  1  0  0  0  0
 19 23  1  0  0  0  0
 21 27  1  0  0  0  0
 24 28  1  0  0  0  0
M  END
>  <MolRegNo>
389286

>  <m>
=

>  <Value>
290

>  <Unit>
nM

>  <Type>
Ki

>  <pValue>
6.54

>  <Ligand Efficiency>
0.28

>  <Binding Efficiency>
14.61

>  <Surface Efficiency>
9.21

>  <Assay Index>
294727

>  <Assay Category>


>  <Assay Organism>


>  <Target ID>
56

>  <Target Name>
Androgen Receptor

>  <Target Organism>
Homo sapiens

>  <Target Description>
Target is a single protein chain

>  <Sequence Accession>
P10275

>  <Reference>
J Med Chem 50 (19), 4699-4709 (2007)

>  <Pubmed ID>
17705362

>  <DOI>
10.1021/jm070370z

$$$$
389301
Actelion Java MolfileCreator 1.0

 35 39  0  0  0  0  0  0  0  0999 V2000
    0.0000   -0.0000   -0.0000 S   0  0  0  0  0  0  0  0  0  0  0  0
    1.2150   -0.8696   -0.0000 C   0  0  0  0  0  0  0  0  0  0  0  0
    0.4527    1.4414   -0.0000 C   0  0  0  0  0  0  0  0  0  0  0  0
    2.4181    0.0119   -0.0000 C   0  0  0  0  0  0  0  0  0  0  0  0
    1.2031   -2.3586   -0.0000 C   0  0  0  0  0  0  0  0  0  0  0  0
    1.9417    1.4533   -0.0000 C   0  0  0  0  0  0  0  0  0  0  0  0
    3.8357   -0.4407   -0.0000 C   0  0  0  0  0  0  0  0  0  0  0  0
   -0.1191   -3.0971   -0.0000 C   0  0  0  0  0  0  0  0  0  0  0  0
    4.1335   -1.8940   -0.0000 C   0  0  0  0  0  0  0  0  0  0  0  0
    4.9435    0.5718   -0.0000 C   0  0  0  0  0  0  0  0  0  0  0  0
   -1.4414   -2.3228   -0.0000 O   0  0  0  0  0  0  0  0  0  0  0  0
   -0.1310   -4.5980   -0.0000 C   0  0  0  0  0  0  0  0  0  0  0  0
    5.5510   -2.3467   -0.0000 C   0  0  0  0  0  0  0  0  0  0  0  0
   -2.7636   -3.0733   -0.0000 C   0  0  0  0  0  0  0  0  0  0  0  0
    1.1555   -5.3366   -0.0000 C   0  0  0  0  0  0  0  0  0  0  0  0
   -1.4533   -5.3247   -0.0000 C   0  0  0  0  0  0  0  0  0  0  0  0
    6.6588   -1.3341   -0.0000 C   0  0  0  0  0  0  0  0  0  0  0  0
   -2.7755   -4.5742   -0.0000 C   0  0  0  0  0  0  0  0  0  0  0  0
   -4.0858   -2.3109   -0.0000 C   0  0  0  0  0  0  0  0  0  0  0  0
    1.1436   -6.8256   -0.0000 C   0  0  0  0  0  0  0  0  0  0  0  0
    2.4301   -4.5861   -0.0000 C   0  0  0  0  0  0  0  0  0  0  0  0
   -1.4771   -6.8137   -0.0000 C   0  0  0  0  0  0  0  0  0  0  0  0
   -4.0858   -5.3128   -0.0000 C   0  0  0  0  0  0  0  0  0  0  0  0
   -5.3961   -3.0614   -0.0000 C   0  0  0  0  0  0  0  0  0  0  0  0
    2.4301   -7.5641   -0.0000 N   0  0  0  0  0  0  0  0  0  0  0  0
   -0.1787   -7.5760   -0.0000 C   0  0  0  0  0  0  0  0  0  0  0  0
    3.7166   -5.3128   -0.0000 C   0  0  0  0  0  0  0  0  0  0  0  0
    2.4181   -3.0733   -0.0000 C   0  0  0  0  0  0  0  0  0  0  0  0
   -4.0977   -6.8018   -0.0000 O   0  0  0  0  0  0  0  0  0  0  0  0
   -5.3961   -4.5504   -0.0000 C   0  0  0  0  0  0  0  0  0  0  0  0
    3.7166   -6.8018   -0.0000 C   0  0  0  0  0  0  0  0  0  0  0  0
   -5.4081   -7.5403   -0.0000 C   0  0  0  0  0  0  0  0  0  0  0  0
   -6.7065   -5.2889   -0.0000 O   0  0  0  0  0  0  0  0  0  0  0  0
    4.9911   -6.0275   -0.0000 C   0  0  0  0  0  0  0  0  0  0  0  0
    3.7166   -8.2908   -0.0000 C   0  0  0  0  0  0  0  0  0  0  0  0
  1  2  1  0  0  0  0
  1  3  1  0  0  0  0
  2  4  2  0  0  0  0
  2  5  1  0  0  0  0
  3  6  2  0  0  0  0
  4  7  1  0  0  0  0
  5  8  2  0  0  0  0
  7  9  2  0  0  0  0
  7 10  1  0  0  0  0
  8 11  1  0  0  0  0
  8 12  1  0  0  0  0
  9 13  1  0  0  0  0
 11 14  1  0  0  0  0
 12 15  2  0  0  0  0
 12 16  1  0  0  0  0
 13 17  1  0  0  0  0
 14 18  2  0  0  0  0
 14 19  1  0  0  0  0
 15 20  1  0  0  0  0
 15 21  1  0  0  0  0
 16 22  2  0  0  0  0
 18 23  1  0  0  0  0
 19 24  2  0  0  0  0
 20 25  1  0  0  0  0
 20 26  2  0  0  0  0
 21 27  2  0  0  0  0
 21 28  1  0  0  0  0
 23 29  1  0  0  0  0
 23 30  2  0  0  0  0
 25 31  1  0  0  0  0
 29 32  1  0  0  0  0
 30 33  1  0  0  0  0
 31 34  1  0  0  0  0
 31 35  1  0  0  0  0
  4  6  1  0  0  0  0
 16 18  1  0  0  0  0
 22 26  1  0  0  0  0
 24 30  1  0  0  0  0
 27 31  1  0  0  0  0
M  END
>  <MolRegNo>
389301

>  <m>
=

>  <Value>
346

>  <Unit>
nM

>  <Type>
Ki

>  <pValue>
6.46

>  <Ligand Efficiency>
0.25

>  <Binding Efficiency>
13.3

>  <Surface Efficiency>
12.74

>  <Assay Index>
294727

>  <Assay Category>


>  <Assay Organism>


>  <Target ID>
56

>  <Target Name>
Androgen Receptor

>  <Target Organism>
Homo sapiens

>  <Target Description>
Target is a single protein chain

>  <Sequence Accession>
P10275

>  <Reference>
J Med Chem 50 (19), 4699-4709 (2007)

>  <Pubmed ID>
17705362

>  <DOI>
10.1021/jm070370z

$$$$
389298
Actelion Java MolfileCreator 1.0

 35 39  0  0  0  0  0  0  0  0999 V2000
    0.0000   -0.0000   -0.0000 S   0  0  0  0  0  0  0  0  0  0  0  0
    1.2150   -0.8696   -0.0000 C   0  0  0  0  0  0  0  0  0  0  0  0
    0.4527    1.4414   -0.0000 C   0  0  0  0  0  0  0  0  0  0  0  0
    2.4181    0.0119   -0.0000 C   0  0  0  0  0  0  0  0  0  0  0  0
    1.2031   -2.3586   -0.0000 C   0  0  0  0  0  0  0  0  0  0  0  0
    1.9417    1.4533   -0.0000 C   0  0  0  0  0  0  0  0  0  0  0  0
    3.8357   -0.4407   -0.0000 C   0  0  0  0  0  0  0  0  0  0  0  0
   -0.1191   -3.0971   -0.0000 C   0  0  0  0  0  0  0  0  0  0  0  0
    4.1335   -1.8940   -0.0000 N   0  0  0  0  0  0  0  0  0  0  0  0
    4.9435    0.5718   -0.0000 C   0  0  0  0  0  0  0  0  0  0  0  0
   -1.4414   -2.3228   -0.0000 O   0  0  0  0  0  0  0  0  0  0  0  0
   -0.1310   -4.5980   -0.0000 C   0  0  0  0  0  0  0  0  0  0  0  0
    5.5510   -2.3467   -0.0000 O   0  0  0  0  0  0  0  0  0  0  0  0
   -2.7636   -3.0733   -0.0000 C   0  0  0  0  0  0  0  0  0  0  0  0
    1.1555   -5.3366   -0.0000 C   0  0  0  0  0  0  0  0  0  0  0  0
   -1.4533   -5.3247   -0.0000 C   0  0  0  0  0  0  0  0  0  0  0  0
    6.6588   -1.3341   -0.0000 C   0  0  0  0  0  0  0  0  0  0  0  0
   -2.7755   -4.5742   -0.0000 C   0  0  0  0  0  0  0  0  0  0  0  0
   -4.0858   -2.3109   -0.0000 C   0  0  0  0  0  0  0  0  0  0  0  0
    1.1436   -6.8256   -0.0000 C   0  0  0  0  0  0  0  0  0  0  0  0
    2.4301   -4.5861   -0.0000 C   0  0  0  0  0  0  0  0  0  0  0  0
   -1.4771   -6.8137   -0.0000 C   0  0  0  0  0  0  0  0  0  0  0  0
   -4.0858   -5.3128   -0.0000 C   0  0  0  0  0  0  0  0  0  0  0  0
   -5.3961   -3.0614   -0.0000 C   0  0  0  0  0  0  0  0  0  0  0  0
    2.4301   -7.5641   -0.0000 N   0  0  0  0  0  0  0  0  0  0  0  0
   -0.1787   -7.5760   -0.0000 C   0  0  0  0  0  0  0  0  0  0  0  0
    3.7166   -5.3128   -0.0000 C   0  0  0  0  0  0  0  0  0  0  0  0
    2.4181   -3.0733   -0.0000 C   0  0  0  0  0  0  0  0  0  0  0  0
   -4.0977   -6.8018   -0.0000 O   0  0  0  0  0  0  0  0  0  0  0  0
   -5.3961   -4.5504   -0.0000 C   0  0  0  0  0  0  0  0  0  0  0  0
    3.7166   -6.8018   -0.0000 C   0  0  0  0  0  0  0  0  0  0  0  0
   -5.4081   -7.5403   -0.0000 C   0  0  0  0  0  0  0  0  0  0  0  0
   -6.7065   -5.2889   -0.0000 O   0  0  0  0  0  0  0  0  0  0  0  0
    4.9911   -6.0275   -0.0000 C   0  0  0  0  0  0  0  0  0  0  0  0
    3.7166   -8.2908   -0.0000 C   0  0  0  0  0  0  0  0  0  0  0  0
  1  2  1  0  0  0  0
  1  3  1  0  0  0  0
  2  4  2  0  0  0  0
  2  5  1  0  0  0  0
  3  6  2  0  0  0  0
  4  7  1  0  0  0  0
  5  8  2  0  0  0  0
  7  9  2  0  0  0  0
  7 10  1  0  0  0  0
  8 11  1  0  0  0  0
  8 12  1  0  0  0  0
  9 13  1  0  0  0  0
 11 14  1  0  0  0  0
 12 15  2  0  0  0  0
 12 16  1  0  0  0  0
 13 17  1  0  0  0  0
 14 18  2  0  0  0  0
 14 19  1  0  0  0  0
 15 20  1  0  0  0  0
 15 21  1  0  0  0  0
 16 22  2  0  0  0  0
 18 23  1  0  0  0  0
 19 24  2  0  0  0  0
 20 25  1  0  0  0  0
 20 26  2  0  0  0  0
 21 27  2  0  0  0  0
 21 28  1  0  0  0  0
 23 29  1  0  0  0  0
 23 30  2  0  0  0  0
 25 31  1  0  0  0  0
 29 32  1  0  0  0  0
 30 33  1  0  0  0  0
 31 34  1  0  0  0  0
 31 35  1  0  0  0  0
  4  6  1  0  0  0  0
 16 18  1  0  0  0  0
 22 26  1  0  0  0  0
 24 30  1  0  0  0  0
 27 31  1  0  0  0  0
M  END
>  <MolRegNo>
389298

>  <m>
=

>  <Value>
110

>  <Unit>
nM

>  <Type>
Ki

>  <pValue>
6.96

>  <Ligand Efficiency>
0.27

>  <Binding Efficiency>
14.24

>  <Surface Efficiency>
9.62

>  <Assay Index>
294727

>  <Assay Category>


>  <Assay Organism>


>  <Target ID>
56

>  <Target Name>
Androgen Receptor

>  <Target Organism>
Homo sapiens

>  <Target Description>
Target is a single protein chain

>  <Sequence Accession>
P10275

>  <Reference>
J Med Chem 50 (19), 4699-4709 (2007)

>  <Pubmed ID>
17705362

>  <DOI>
10.1021/jm070370z

$$$$
389296
Actelion Java MolfileCreator 1.0

 33 37  0  0  0  0  0  0  0  0999 V2000
    0.0000   -0.0000   -0.0000 S   0  0  0  0  0  0  0  0  0  0  0  0
    1.2148   -0.8694   -0.0000 C   0  0  0  0  0  0  0  0  0  0  0  0
    0.4526    1.4411   -0.0000 C   0  0  0  0  0  0  0  0  0  0  0  0
    2.4177    0.0119   -0.0000 C   0  0  0  0  0  0  0  0  0  0  0  0
    1.2029   -2.3581   -0.0000 C   0  0  0  0  0  0  0  0  0  0  0  0
    1.9413    1.4530   -0.0000 C   0  0  0  0  0  0  0  0  0  0  0  0
    3.8349   -0.4407   -0.0000 C   0  0  0  0  0  0  0  0  0  0  0  0
   -0.1191   -3.0965   -0.0000 C   0  0  0  0  0  0  0  0  0  0  0  0
    4.1326   -1.8936   -0.0000 O   0  0  0  0  0  0  0  0  0  0  0  0
    4.9425    0.5717   -0.0000 C   0  0  0  0  0  0  0  0  0  0  0  0
   -1.4411   -2.3224   -0.0000 O   0  0  0  0  0  0  0  0  0  0  0  0
   -0.1310   -4.5971   -0.0000 C   0  0  0  0  0  0  0  0  0  0  0  0
   -2.7630   -3.0727   -0.0000 C   0  0  0  0  0  0  0  0  0  0  0  0
    1.1552   -5.3355   -0.0000 C   0  0  0  0  0  0  0  0  0  0  0  0
   -1.4530   -5.3236   -0.0000 C   0  0  0  0  0  0  0  0  0  0  0  0
   -2.7749   -4.5733   -0.0000 C   0  0  0  0  0  0  0  0  0  0  0  0
   -4.0850   -2.3105   -0.0000 C   0  0  0  0  0  0  0  0  0  0  0  0
    1.1433   -6.8242   -0.0000 C   0  0  0  0  0  0  0  0  0  0  0  0
    2.4296   -4.5852   -0.0000 C   0  0  0  0  0  0  0  0  0  0  0  0
   -1.4768   -6.8123   -0.0000 C   0  0  0  0  0  0  0  0  0  0  0  0
   -4.0850   -5.3117   -0.0000 C   0  0  0  0  0  0  0  0  0  0  0  0
   -5.3951   -3.0608   -0.0000 C   0  0  0  0  0  0  0  0  0  0  0  0
    2.4296   -7.5626   -0.0000 N   0  0  0  0  0  0  0  0  0  0  0  0
   -0.1786   -7.5745   -0.0000 C   0  0  0  0  0  0  0  0  0  0  0  0
    3.7158   -5.3117   -0.0000 C   0  0  0  0  0  0  0  0  0  0  0  0
    2.4177   -3.0727   -0.0000 C   0  0  0  0  0  0  0  0  0  0  0  0
   -4.0969   -6.8004   -0.0000 O   0  0  0  0  0  0  0  0  0  0  0  0
   -5.3951   -4.5495   -0.0000 C   0  0  0  0  0  0  0  0  0  0  0  0
    3.7158   -6.8004   -0.0000 C   0  0  0  0  0  0  0  0  0  0  0  0
   -5.4070   -7.5388   -0.0000 C   0  0  0  0  0  0  0  0  0  0  0  0
   -6.7051   -5.2879   -0.0000 O   0  0  0  0  0  0  0  0  0  0  0  0
    4.9901   -6.0263   -0.0000 C   0  0  0  0  0  0  0  0  0  0  0  0
    3.7158   -8.2891   -0.0000 C   0  0  0  0  0  0  0  0  0  0  0  0
  1  2  1  0  0  0  0
  1  3  1  0  0  0  0
  2  4  2  0  0  0  0
  2  5  1  0  0  0  0
  3  6  2  0  0  0  0
  4  7  1  0  0  0  0
  5  8  2  0  0  0  0
  7  9  1  0  0  0  0
  7 10  1  0  0  0  0
  8 11  1  0  0  0  0
  8 12  1  0  0  0  0
 11 13  1  0  0  0  0
 12 14  2  0  0  0  0
 12 15  1  0  0  0  0
 13 16  2  0  0  0  0
 13 17  1  0  0  0  0
 14 18  1  0  0  0  0
 14 19  1  0  0  0  0
 15 20  2  0  0  0  0
 16 21  1  0  0  0  0
 17 22  2  0  0  0  0
 18 23  1  0  0  0  0
 18 24  2  0  0  0  0
 19 25  2  0  0  0  0
 19 26  1  0  0  0  0
 21 27  1  0  0  0  0
 21 28  2  0  0  0  0
 23 29  1  0  0  0  0
 27 30  1  0  0  0  0
 28 31  1  0  0  0  0
 29 32  1  0  0  0  0
 29 33  1  0  0  0  0
  4  6  1  0  0  0  0
 15 16  1  0  0  0  0
 20 24  1  0  0  0  0
 22 28  1  0  0  0  0
 25 29  1  0  0  0  0
M  END
>  <MolRegNo>
389296

>  <m>
=

>  <Value>
1530

>  <Unit>
nM

>  <Type>
Ki

>  <pValue>
5.82

>  <Ligand Efficiency>
0.24

>  <Binding Efficiency>
12.6

>  <Surface Efficiency>
8.2

>  <Assay Index>
294727

>  <Assay Category>


>  <Assay Organism>


>  <Target ID>
56

>  <Target Name>
Androgen Receptor

>  <Target Organism>
Homo sapiens

>  <Target Description>
Target is a single protein chain

>  <Sequence Accession>
P10275

>  <Reference>
J Med Chem 50 (19), 4699-4709 (2007)

>  <Pubmed ID>
17705362

>  <DOI>
10.1021/jm070370z

$$$$
389295
Actelion Java MolfileCreator 1.0

 34 38  0  0  0  0  0  0  0  0999 V2000
    0.0000   -0.0000   -0.0000 S   0  0  0  0  0  0  0  0  0  0  0  0
    1.2150   -0.8696   -0.0000 C   0  0  0  0  0  0  0  0  0  0  0  0
    0.4527    1.4414   -0.0000 C   0  0  0  0  0  0  0  0  0  0  0  0
    2.4182    0.0119   -0.0000 C   0  0  0  0  0  0  0  0  0  0  0  0
    1.2031   -2.3586   -0.0000 C   0  0  0  0  0  0  0  0  0  0  0  0
    1.9417    1.4533   -0.0000 C   0  0  0  0  0  0  0  0  0  0  0  0
    3.8357   -0.4408   -0.0000 C   0  0  0  0  0  0  0  0  0  0  0  0
   -0.1191   -3.0972   -0.0000 C   0  0  0  0  0  0  0  0  0  0  0  0
    4.1335   -1.8940   -0.0000 N   0  0  0  0  0  0  0  0  0  0  0  0
    4.9436    0.5718   -0.0000 C   0  0  0  0  0  0  0  0  0  0  0  0
   -1.4414   -2.3229   -0.0000 O   0  0  0  0  0  0  0  0  0  0  0  0
   -0.1310   -4.5981   -0.0000 C   0  0  0  0  0  0  0  0  0  0  0  0
    5.5511   -2.3467   -0.0000 O   0  0  0  0  0  0  0  0  0  0  0  0
   -2.7636   -3.0733   -0.0000 C   0  0  0  0  0  0  0  0  0  0  0  0
    1.1555   -5.3367   -0.0000 C   0  0  0  0  0  0  0  0  0  0  0  0
   -1.4533   -5.3248   -0.0000 C   0  0  0  0  0  0  0  0  0  0  0  0
   -2.7755   -4.5743   -0.0000 C   0  0  0  0  0  0  0  0  0  0  0  0
   -4.0859   -2.3110   -0.0000 C   0  0  0  0  0  0  0  0  0  0  0  0
    1.1436   -6.8257   -0.0000 C   0  0  0  0  0  0  0  0  0  0  0  0
    2.4301   -4.5862   -0.0000 C   0  0  0  0  0  0  0  0  0  0  0  0
   -1.4771   -6.8138   -0.0000 C   0  0  0  0  0  0  0  0  0  0  0  0
   -4.0859   -5.3128   -0.0000 C   0  0  0  0  0  0  0  0  0  0  0  0
   -5.3962   -3.0614   -0.0000 C   0  0  0  0  0  0  0  0  0  0  0  0
    2.4301   -7.5642   -0.0000 N   0  0  0  0  0  0  0  0  0  0  0  0
   -0.1787   -7.5762   -0.0000 C   0  0  0  0  0  0  0  0  0  0  0  0
    3.7166   -5.3128   -0.0000 C   0  0  0  0  0  0  0  0  0  0  0  0
    2.4182   -3.0733   -0.0000 C   0  0  0  0  0  0  0  0  0  0  0  0
   -4.0978   -6.8019   -0.0000 O   0  0  0  0  0  0  0  0  0  0  0  0
   -5.3962   -4.5505   -0.0000 C   0  0  0  0  0  0  0  0  0  0  0  0
    3.7166   -6.8019   -0.0000 C   0  0  0  0  0  0  0  0  0  0  0  0
   -5.4081   -7.5404   -0.0000 C   0  0  0  0  0  0  0  0  0  0  0  0
   -6.7066   -5.2890   -0.0000 O   0  0  0  0  0  0  0  0  0  0  0  0
    4.9912   -6.0276   -0.0000 C   0  0  0  0  0  0  0  0  0  0  0  0
    3.7166   -8.2909   -0.0000 C   0  0  0  0  0  0  0  0  0  0  0  0
  1  2  1  0  0  0  0
  1  3  1  0  0  0  0
  2  4  2  0  0  0  0
  2  5  1  0  0  0  0
  3  6  2  0  0  0  0
  4  7  1  0  0  0  0
  5  8  2  0  0  0  0
  7  9  2  0  0  0  0
  7 10  1  0  0  0  0
  8 11  1  0  0  0  0
  8 12  1  0  0  0  0
  9 13  1  0  0  0  0
 11 14  1  0  0  0  0
 12 15  2  0  0  0  0
 12 16  1  0  0  0  0
 14 17  2  0  0  0  0
 14 18  1  0  0  0  0
 15 19  1  0  0  0  0
 15 20  1  0  0  0  0
 16 21  2  0  0  0  0
 17 22  1  0  0  0  0
 18 23  2  0  0  0  0
 19 24  1  0  0  0  0
 19 25  2  0  0  0  0
 20 26  2  0  0  0  0
 20 27  1  0  0  0  0
 22 28  1  0  0  0  0
 22 29  2  0  0  0  0
 24 30  1  0  0  0  0
 28 31  1  0  0  0  0
 29 32  1  0  0  0  0
 30 33  1  0  0  0  0
 30 34  1  0  0  0  0
  4  6  1  0  0  0  0
 16 17  1  0  0  0  0
 21 25  1  0  0  0  0
 23 29  1  0  0  0  0
 26 30  1  0  0  0  0
M  END
>  <MolRegNo>
389295

>  <m>
=

>  <Value>
290

>  <Unit>
nM

>  <Type>
Ki

>  <pValue>
6.54

>  <Ligand Efficiency>
0.26

>  <Binding Efficiency>
13.78

>  <Surface Efficiency>
7.85

>  <Assay Index>
294727

>  <Assay Category>


>  <Assay Organism>


>  <Target ID>
56

>  <Target Name>
Androgen Receptor

>  <Target Organism>
Homo sapiens

>  <Target Description>
Target is a single protein chain

>  <Sequence Accession>
P10275

>  <Reference>
J Med Chem 50 (19), 4699-4709 (2007)

>  <Pubmed ID>
17705362

>  <DOI>
10.1021/jm070370z

$$$$
389291
Actelion Java MolfileCreator 1.0

 36 40  0  0  0  0  0  0  0  0999 V2000
    0.0000   -0.0000   -0.0000 S   0  0  0  0  0  0  0  0  0  0  0  0
    1.2146   -0.8693   -0.0000 C   0  0  0  0  0  0  0  0  0  0  0  0
    0.4525    1.4409   -0.0000 C   0  0  0  0  0  0  0  0  0  0  0  0
    2.4174    0.0119   -0.0000 C   0  0  0  0  0  0  0  0  0  0  0  0
    1.2027   -2.3578   -0.0000 C   0  0  0  0  0  0  0  0  0  0  0  0
    1.9410    1.4528   -0.0000 C   0  0  0  0  0  0  0  0  0  0  0  0
    3.8344   -0.4406   -0.0000 C   0  0  0  0  0  0  0  0  0  0  0  0
   -0.1191   -3.0961   -0.0000 C   0  0  0  0  0  0  0  0  0  0  0  0
    4.1321   -1.8934   -0.0000 O   0  0  0  0  0  0  0  0  0  0  0  0
    4.9419    0.5716   -0.0000 C   0  0  0  0  0  0  0  0  0  0  0  0
   -1.4409   -2.3221   -0.0000 O   0  0  0  0  0  0  0  0  0  0  0  0
   -0.1310   -4.5966   -0.0000 C   0  0  0  0  0  0  0  0  0  0  0  0
    5.9898   -0.4763   -0.0000 F   0  0  0  0  0  0  0  0  0  0  0  0
    3.8582    1.6552   -0.0000 F   0  0  0  0  0  0  0  0  0  0  0  0
    6.0494    1.5719   -0.0000 F   0  0  0  0  0  0  0  0  0  0  0  0
   -2.7627   -3.0723   -0.0000 C   0  0  0  0  0  0  0  0  0  0  0  0
    1.1551   -5.3349   -0.0000 C   0  0  0  0  0  0  0  0  0  0  0  0
   -1.4528   -5.3230   -0.0000 C   0  0  0  0  0  0  0  0  0  0  0  0
   -2.7746   -4.5727   -0.0000 C   0  0  0  0  0  0  0  0  0  0  0  0
   -4.0845   -2.3102   -0.0000 C   0  0  0  0  0  0  0  0  0  0  0  0
    1.1432   -6.8234   -0.0000 C   0  0  0  0  0  0  0  0  0  0  0  0
    2.4293   -4.5846   -0.0000 C   0  0  0  0  0  0  0  0  0  0  0  0
   -1.4766   -6.8115   -0.0000 C   0  0  0  0  0  0  0  0  0  0  0  0
   -4.0845   -5.3110   -0.0000 C   0  0  0  0  0  0  0  0  0  0  0  0
   -5.3944   -3.0604   -0.0000 C   0  0  0  0  0  0  0  0  0  0  0  0
    2.4293   -7.5617   -0.0000 N   0  0  0  0  0  0  0  0  0  0  0  0
   -0.1786   -7.5736   -0.0000 C   0  0  0  0  0  0  0  0  0  0  0  0
    3.7154   -5.3110   -0.0000 C   0  0  0  0  0  0  0  0  0  0  0  0
    2.4174   -3.0723   -0.0000 C   0  0  0  0  0  0  0  0  0  0  0  0
   -4.0964   -6.7996   -0.0000 O   0  0  0  0  0  0  0  0  0  0  0  0
   -5.3944   -4.5489   -0.0000 C   0  0  0  0  0  0  0  0  0  0  0  0
    3.7154   -6.7996   -0.0000 C   0  0  0  0  0  0  0  0  0  0  0  0
   -5.4063   -7.5379   -0.0000 C   0  0  0  0  0  0  0  0  0  0  0  0
   -6.7043   -5.2872   -0.0000 O   0  0  0  0  0  0  0  0  0  0  0  0
    4.9895   -6.0255   -0.0000 C   0  0  0  0  0  0  0  0  0  0  0  0
    3.7154   -8.2881   -0.0000 C   0  0  0  0  0  0  0  0  0  0  0  0
  1  2  1  0  0  0  0
  1  3  1  0  0  0  0
  2  4  2  0  0  0  0
  2  5  1  0  0  0  0
  3  6  2  0  0  0  0
  4  7  1  0  0  0  0
  5  8  2  0  0  0  0
  7  9  1  0  0  0  0
  7 10  1  0  0  0  0
  8 11  1  0  0  0  0
  8 12  1  0  0  0  0
 10 13  1  0  0  0  0
 10 14  1  0  0  0  0
 10 15  1  0  0  0  0
 11 16  1  0  0  0  0
 12 17  2  0  0  0  0
 12 18  1  0  0  0  0
 16 19  2  0  0  0  0
 16 20  1  0  0  0  0
 17 21  1  0  0  0  0
 17 22  1  0  0  0  0
 18 23  2  0  0  0  0
 19 24  1  0  0  0  0
 20 25  2  0  0  0  0
 21 26  1  0  0  0  0
 21 27  2  0  0  0  0
 22 28  2  0  0  0  0
 22 29  1  0  0  0  0
 24 30  1  0  0  0  0
 24 31  2  0  0  0  0
 26 32  1  0  0  0  0
 30 33  1  0  0  0  0
 31 34  1  0  0  0  0
 32 35  1  0  0  0  0
 32 36  1  0  0  0  0
  4  6  1  0  0  0  0
 18 19  1  0  0  0  0
 23 27  1  0  0  0  0
 25 31  1  0  0  0  0
 28 32  1  0  0  0  0
M  END
>  <MolRegNo>
389291

>  <m>
=

>  <Value>
1900

>  <Unit>
nM

>  <Type>
Ki

>  <pValue>
5.72

>  <Ligand Efficiency>
0.22

>  <Binding Efficiency>
11.1

>  <Surface Efficiency>
8.06

>  <Assay Index>
294727

>  <Assay Category>


>  <Assay Organism>


>  <Target ID>
56

>  <Target Name>
Androgen Receptor

>  <Target Organism>
Homo sapiens

>  <Target Description>
Target is a single protein chain

>  <Sequence Accession>
P10275

>  <Reference>
J Med Chem 50 (19), 4699-4709 (2007)

>  <Pubmed ID>
17705362

>  <DOI>
10.1021/jm070370z

$$$$
389287
Actelion Java MolfileCreator 1.0

 33 37  0  0  0  0  0  0  0  0999 V2000
    0.0000   -0.0000   -0.0000 S   0  0  0  0  0  0  0  0  0  0  0  0
    1.2147   -0.8693   -0.0000 C   0  0  0  0  0  0  0  0  0  0  0  0
    0.4525    1.4409   -0.0000 C   0  0  0  0  0  0  0  0  0  0  0  0
    2.4175    0.0119   -0.0000 C   0  0  0  0  0  0  0  0  0  0  0  0
    1.2028   -2.3579   -0.0000 C   0  0  0  0  0  0  0  0  0  0  0  0
    1.9411    1.4529   -0.0000 C   0  0  0  0  0  0  0  0  0  0  0  0
    3.8346   -0.4406   -0.0000 C   0  0  0  0  0  0  0  0  0  0  0  0
   -0.1191   -3.0963   -0.0000 C   0  0  0  0  0  0  0  0  0  0  0  0
    4.9421    0.5716   -0.0000 O   0  0  0  0  0  0  0  0  0  0  0  0
   -1.4409   -2.3222   -0.0000 O   0  0  0  0  0  0  0  0  0  0  0  0
   -0.1310   -4.5967   -0.0000 C   0  0  0  0  0  0  0  0  0  0  0  0
    6.3592    0.1191   -0.0000 C   0  0  0  0  0  0  0  0  0  0  0  0
   -2.7628   -3.0724   -0.0000 C   0  0  0  0  0  0  0  0  0  0  0  0
    1.1551   -5.3351   -0.0000 C   0  0  0  0  0  0  0  0  0  0  0  0
   -1.4529   -5.3232   -0.0000 C   0  0  0  0  0  0  0  0  0  0  0  0
   -2.7747   -4.5729   -0.0000 C   0  0  0  0  0  0  0  0  0  0  0  0
   -4.0847   -2.3103   -0.0000 C   0  0  0  0  0  0  0  0  0  0  0  0
    1.1432   -6.8237   -0.0000 C   0  0  0  0  0  0  0  0  0  0  0  0
    2.4294   -4.5848   -0.0000 C   0  0  0  0  0  0  0  0  0  0  0  0
   -1.4767   -6.8118   -0.0000 C   0  0  0  0  0  0  0  0  0  0  0  0
   -4.0847   -5.3113   -0.0000 C   0  0  0  0  0  0  0  0  0  0  0  0
   -5.3946   -3.0605   -0.0000 C   0  0  0  0  0  0  0  0  0  0  0  0
    2.4294   -7.5620   -0.0000 N   0  0  0  0  0  0  0  0  0  0  0  0
   -0.1786   -7.5739   -0.0000 C   0  0  0  0  0  0  0  0  0  0  0  0
    3.7155   -5.3113   -0.0000 C   0  0  0  0  0  0  0  0  0  0  0  0
    2.4175   -3.0724   -0.0000 C   0  0  0  0  0  0  0  0  0  0  0  0
   -4.0966   -6.7998   -0.0000 O   0  0  0  0  0  0  0  0  0  0  0  0
   -5.3946   -4.5491   -0.0000 C   0  0  0  0  0  0  0  0  0  0  0  0
    3.7155   -6.7998   -0.0000 C   0  0  0  0  0  0  0  0  0  0  0  0
   -5.4065   -7.5382   -0.0000 C   0  0  0  0  0  0  0  0  0  0  0  0
   -6.7046   -5.2874   -0.0000 O   0  0  0  0  0  0  0  0  0  0  0  0
    4.9897   -6.0258   -0.0000 C   0  0  0  0  0  0  0  0  0  0  0  0
    3.7155   -8.2884   -0.0000 C   0  0  0  0  0  0  0  0  0  0  0  0
  1  2  1  0  0  0  0
  1  3  1  0  0  0  0
  2  4  2  0  0  0  0
  2  5  1  0  0  0  0
  3  6  2  0  0  0  0
  4  7  1  0  0  0  0
  5  8  2  0  0  0  0
  7  9  1  0  0  0  0
  8 10  1  0  0  0  0
  8 11  1  0  0  0  0
  9 12  1  0  0  0  0
 10 13  1  0  0  0  0
 11 14  2  0  0  0  0
 11 15  1  0  0  0  0
 13 16  2  0  0  0  0
 13 17  1  0  0  0  0
 14 18  1  0  0  0  0
 14 19  1  0  0  0  0
 15 20  2  0  0  0  0
 16 21  1  0  0  0  0
 17 22  2  0  0  0  0
 18 23  1  0  0  0  0
 18 24  2  0  0  0  0
 19 25  2  0  0  0  0
 19 26  1  0  0  0  0
 21 27  1  0  0  0  0
 21 28  2  0  0  0  0
 23 29  1  0  0  0  0
 27 30  1  0  0  0  0
 28 31  1  0  0  0  0
 29 32  1  0  0  0  0
 29 33  1  0  0  0  0
  4  6  1  0  0  0  0
 15 16  1  0  0  0  0
 20 24  1  0  0  0  0
 22 28  1  0  0  0  0
 25 29  1  0  0  0  0
M  END
>  <MolRegNo>
389287

>  <m>
=

>  <Value>
150

>  <Unit>
nM

>  <Type>
Ki

>  <pValue>
6.82

>  <Ligand Efficiency>
0.28

>  <Binding Efficiency>
14.78

>  <Surface Efficiency>
11.38

>  <Assay Index>
294727

>  <Assay Category>


>  <Assay Organism>


>  <Target ID>
56

>  <Target Name>
Androgen Receptor

>  <Target Organism>
Homo sapiens

>  <Target Description>
Target is a single protein chain

>  <Sequence Accession>
P10275

>  <Reference>
J Med Chem 50 (19), 4699-4709 (2007)

>  <Pubmed ID>
17705362

>  <DOI>
10.1021/jm070370z

$$$$
396187
Actelion Java MolfileCreator 1.0

 25 26  0  0  0  0  0  0  0  0999 V2000
    0.0000   -0.0000   -0.0000 F   0  0  0  0  0  0  0  0  0  0  0  0
   -1.2945   -0.7482   -0.0000 C   0  0  0  0  0  0  0  0  0  0  0  0
   -2.0664    0.5582   -0.0000 F   0  0  0  0  0  0  0  0  0  0  0  0
   -0.5344   -2.0308   -0.0000 F   0  0  0  0  0  0  0  0  0  0  0  0
   -2.6008   -1.4963   -0.0000 C   0  0  0  0  0  0  0  0  0  0  0  0
   -2.5889   -2.9808   -0.0000 N   0  0  0  0  0  0  0  0  0  0  0  0
   -3.8715   -3.7290   -0.0000 C   0  0  0  0  0  0  0  0  0  0  0  0
   -1.2945   -3.7052   -0.0000 C   0  0  0  0  0  0  0  0  0  0  0  0
   -5.1897   -2.9808   -0.0000 C   0  0  0  0  0  0  0  0  0  0  0  0
   -3.8715   -5.2253   -0.0000 C   0  0  0  0  0  0  0  0  0  0  0  0
   -1.2826   -5.1897   -0.0000 C   0  0  0  0  0  0  0  0  0  0  0  0
   -6.4961   -3.7171   -0.0000 C   0  0  0  0  0  0  0  0  0  0  0  0
   -5.1778   -5.9616   -0.0000 C   0  0  0  0  0  0  0  0  0  0  0  0
   -1.3063   -6.6742   -0.0000 F   0  0  0  0  0  0  0  0  0  0  0  0
    0.2019   -5.1778   -0.0000 F   0  0  0  0  0  0  0  0  0  0  0  0
   -2.7908   -5.1897   -0.0000 F   0  0  0  0  0  0  0  0  0  0  0  0
   -6.5079   -5.2135   -0.0000 C   0  0  0  0  0  0  0  0  0  0  0  0
   -7.8024   -2.9571   -0.0000 C   0  0  0  0  0  0  0  0  0  0  0  0
   -7.8143   -5.9616   -0.0000 N   0  0  0  0  0  0  0  0  0  0  0  0
   -9.1087   -3.6934   -0.0000 C   0  0  0  0  0  0  0  0  0  0  0  0
   -7.8143   -1.4488   -0.0000 C   0  0  0  0  0  0  0  0  0  0  0  0
   -9.1206   -5.2016   -0.0000 C   0  0  0  0  0  0  0  0  0  0  0  0
   -6.5317   -0.6888   -0.0000 C   0  0  0  0  0  0  0  0  0  0  0  0
  -10.4269   -5.9379   -0.0000 O   0  0  0  0  0  0  0  0  0  0  0  0
   -6.5436    0.8194   -0.0000 C   0  0  0  0  0  0  0  0  0  0  0  0
  1  2  1  0  0  0  0
  2  3  1  0  0  0  0
  2  4  1  0  0  0  0
  2  5  1  0  0  0  0
  5  6  1  0  0  0  0
  6  7  1  0  0  0  0
  6  8  1  0  0  0  0
  7  9  2  0  0  0  0
  7 10  1  0  0  0  0
  8 11  1  0  0  0  0
  9 12  1  0  0  0  0
 10 13  2  0  0  0  0
 11 14  1  0  0  0  0
 11 15  1  0  0  0  0
 11 16  1  0  0  0  0
 12 17  2  0  0  0  0
 12 18  1  0  0  0  0
 17 19  1  0  0  0  0
 18 20  2  0  0  0  0
 18 21  1  0  0  0  0
 19 22  1  0  0  0  0
 21 23  1  0  0  0  0
 22 24  2  0  0  0  0
 23 25  1  0  0  0  0
 13 17  1  0  0  0  0
 20 22  1  0  0  0  0
M  END
>  <MolRegNo>
396187

>  <m>
=

>  <Value>
42

>  <Unit>
nM

>  <Type>
Ki

>  <pValue>
7.38

>  <Ligand Efficiency>
0.4

>  <Binding Efficiency>
20.14

>  <Surface Efficiency>
20.43

>  <Assay Index>
290824

>  <Assay Category>


>  <Assay Organism>
Homo sapiens

>  <Target ID>
56

>  <Target Name>
Androgen Receptor

>  <Target Organism>
Homo sapiens

>  <Target Description>
Target is a single protein chain

>  <Sequence Accession>
P10275

>  <Reference>
Bioorg Med Chem Lett 17 (6), 1527-1531 (2007)

>  <Pubmed ID>
17267219

>  <DOI>
10.1016/j.bmcl.2007.01.001

$$$$
2038952
Actelion Java MolfileCreator 1.0

 32 36  0  0  0  0  0  0  0  0999 V2000
    0.0000   -0.0000   -0.0000 O   0  0  0  0  0  0  0  0  0  0  0  0
   -1.3118   -0.7513   -0.0000 C   0  0  0  0  0  0  0  0  0  0  0  0
    1.2999   -0.7394   -0.0000 C   0  0  0  0  0  0  0  0  0  0  0  0
   -1.3118   -2.2539   -0.0000 C   0  0  0  0  0  0  0  0  0  0  0  0
   -2.6236   -0.0000   -0.0000 C   0  0  0  0  0  0  0  0  0  0  0  0
    1.2999   -2.2420   -0.0000 C   0  0  0  0  0  0  0  0  0  0  0  0
    2.5878    0.0239   -0.0000 C   0  0  0  0  0  0  0  0  0  0  0  0
   -2.6236   -2.9933   -0.0000 C   0  0  0  0  0  0  0  0  0  0  0  0
   -0.0119   -2.9814   -0.0000 C   0  0  0  0  0  0  0  0  0  0  0  0
   -3.9354   -0.7394   -0.0000 C   0  0  0  0  0  0  0  0  0  0  0  0
    2.5878   -2.9814   -0.0000 C   0  0  0  0  0  0  0  0  0  0  0  0
    2.5759    1.5384   -0.0000 C   0  0  0  0  0  0  0  0  0  0  0  0
   -2.6355   -4.4840   -0.0000 O   0  0  0  0  0  0  0  0  0  0  0  0
   -3.9354   -2.2301   -0.0000 C   0  0  0  0  0  0  0  0  0  0  0  0
   -0.0239   -4.4721   -0.0000 C   0  0  0  0  0  0  0  0  0  0  0  0
    2.5759   -4.4721   -0.0000 C   0  0  0  0  0  0  0  0  0  0  0  0
    3.8639   -2.2181   -0.0000 C   0  0  0  0  0  0  0  0  0  0  0  0
    3.8639    2.3016   -0.0000 C   0  0  0  0  0  0  0  0  0  0  0  0
    1.2641    2.2897   -0.0000 C   0  0  0  0  0  0  0  0  0  0  0  0
   -3.9474   -5.2234   -0.0000 C   0  0  0  0  0  0  0  0  0  0  0  0
   -5.2472   -2.9695   -0.0000 O   0  0  0  0  0  0  0  0  0  0  0  0
    1.2760   -5.2115   -0.0000 C   0  0  0  0  0  0  0  0  0  0  0  0
    3.8639   -5.1995   -0.0000 N   0  0  0  0  0  0  0  0  0  0  0  0
    5.1518   -2.9456   -0.0000 C   0  0  0  0  0  0  0  0  0  0  0  0
    3.8400   -0.7036   -0.0000 C   0  0  0  0  0  0  0  0  0  0  0  0
    3.8519    3.8162   -0.0000 C   0  0  0  0  0  0  0  0  0  0  0  0
    1.2403    3.7923   -0.0000 C   0  0  0  0  0  0  0  0  0  0  0  0
    5.1518   -4.4363   -0.0000 C   0  0  0  0  0  0  0  0  0  0  0  0
    5.1399    4.5794   -0.0000 O   0  0  0  0  0  0  0  0  0  0  0  0
    2.5401    4.5794   -0.0000 C   0  0  0  0  0  0  0  0  0  0  0  0
    5.1280   -5.9151   -0.0000 C   0  0  0  0  0  0  0  0  0  0  0  0
    6.4517   -3.6850   -0.0000 C   0  0  0  0  0  0  0  0  0  0  0  0
  1  2  1  0  0  0  0
  1  3  1  0  0  0  0
  2  4  2  0  0  0  0
  2  5  1  0  0  0  0
  3  6  1  0  0  0  0
  3  7  2  0  0  0  0
  4  8  1  0  0  0  0
  4  9  1  0  0  0  0
  5 10  2  0  0  0  0
  6 11  1  0  0  0  0
  7 12  1  0  0  0  0
  8 13  1  0  0  0  0
  8 14  2  0  0  0  0
  9 15  1  0  0  0  0
 11 16  2  0  0  0  0
 11 17  1  0  0  0  0
 12 18  2  0  0  0  0
 12 19  1  0  0  0  0
 13 20  1  0  0  0  0
 14 21  1  0  0  0  0
 15 22  2  0  0  0  0
 16 23  1  0  0  0  0
 17 24  2  0  0  0  0
 17 25  1  0  0  0  0
 18 26  1  0  0  0  0
 19 27  2  0  0  0  0
 23 28  1  0  0  0  0
 26 29  1  0  0  0  0
 26 30  2  0  0  0  0
 28 31  1  0  0  0  0
 28 32  1  0  0  0  0
  6  9  2  0  0  0  0
 10 14  1  0  0  0  0
 16 22  1  0  0  0  0
 24 28  1  0  0  0  0
 27 30  1  0  0  0  0
M  END
>  <MolRegNo>
2038952

>  <m>
=

>  <Value>
910

>  <Unit>
nM

>  <Type>
Ki

>  <pValue>
6.04

>  <Ligand Efficiency>
0.26

>  <Binding Efficiency>
14.13

>  <Surface Efficiency>
8.51

>  <Assay Index>
296494

>  <Assay Category>


>  <Assay Organism>


>  <Target ID>
56

>  <Target Name>
Androgen Receptor

>  <Target Organism>
Homo sapiens

>  <Target Description>
Target is a single protein chain

>  <Sequence Accession>
P10275

>  <Reference>
Bioorg Med Chem Lett 17 (15), 4158-4162 (2007)

>  <Pubmed ID>
17553679

>  <DOI>
10.1016/j.bmcl.2007.05.062

$$$$
2038949
Actelion Java MolfileCreator 1.0

 32 36  0  0  0  0  0  0  0  0999 V2000
    0.0000   -0.0000   -0.0000 O   0  0  0  0  0  0  0  0  0  0  0  0
   -1.3114   -0.7511   -0.0000 C   0  0  0  0  0  0  0  0  0  0  0  0
    1.2995   -0.7391   -0.0000 C   0  0  0  0  0  0  0  0  0  0  0  0
   -1.3114   -2.2532   -0.0000 C   0  0  0  0  0  0  0  0  0  0  0  0
   -2.6228   -0.0000   -0.0000 C   0  0  0  0  0  0  0  0  0  0  0  0
    1.2995   -2.2413   -0.0000 C   0  0  0  0  0  0  0  0  0  0  0  0
    2.5870    0.0238   -0.0000 C   0  0  0  0  0  0  0  0  0  0  0  0
   -2.6228   -2.9923   -0.0000 C   0  0  0  0  0  0  0  0  0  0  0  0
   -0.0119   -2.9923   -0.0000 C   0  0  0  0  0  0  0  0  0  0  0  0
   -3.9341   -0.7391   -0.0000 C   0  0  0  0  0  0  0  0  0  0  0  0
    2.5870   -2.9804   -0.0000 C   0  0  0  0  0  0  0  0  0  0  0  0
    2.5751    1.5379   -0.0000 C   0  0  0  0  0  0  0  0  0  0  0  0
   -2.6347   -4.4825   -0.0000 O   0  0  0  0  0  0  0  0  0  0  0  0
   -3.9341   -2.2293   -0.0000 C   0  0  0  0  0  0  0  0  0  0  0  0
   -0.0238   -4.4825   -0.0000 C   0  0  0  0  0  0  0  0  0  0  0  0
    2.5751   -4.4706   -0.0000 C   0  0  0  0  0  0  0  0  0  0  0  0
    3.8626   -2.2174   -0.0000 C   0  0  0  0  0  0  0  0  0  0  0  0
    3.8626    2.3009   -0.0000 C   0  0  0  0  0  0  0  0  0  0  0  0
    1.2637    2.2890   -0.0000 C   0  0  0  0  0  0  0  0  0  0  0  0
   -3.9461   -5.2217   -0.0000 C   0  0  0  0  0  0  0  0  0  0  0  0
   -5.2455   -2.9685   -0.0000 O   0  0  0  0  0  0  0  0  0  0  0  0
    1.2756   -5.2217   -0.0000 C   0  0  0  0  0  0  0  0  0  0  0  0
    3.8626   -5.1978   -0.0000 N   0  0  0  0  0  0  0  0  0  0  0  0
    5.1501   -2.9446   -0.0000 C   0  0  0  0  0  0  0  0  0  0  0  0
    3.8388   -0.7034   -0.0000 C   0  0  0  0  0  0  0  0  0  0  0  0
    3.8507    3.8149   -0.0000 C   0  0  0  0  0  0  0  0  0  0  0  0
    1.2398    3.7911   -0.0000 C   0  0  0  0  0  0  0  0  0  0  0  0
    5.1501   -4.4348   -0.0000 C   0  0  0  0  0  0  0  0  0  0  0  0
    2.5393    4.5779   -0.0000 C   0  0  0  0  0  0  0  0  0  0  0  0
    5.1382    4.5779   -0.0000 C   0  0  0  0  0  0  0  0  0  0  0  0
    5.1263   -5.9131   -0.0000 C   0  0  0  0  0  0  0  0  0  0  0  0
    6.4496   -3.6838   -0.0000 C   0  0  0  0  0  0  0  0  0  0  0  0
  1  2  1  0  0  0  0
  1  3  1  0  0  0  0
  2  4  2  0  0  0  0
  2  5  1  0  0  0  0
  3  6  1  0  0  0  0
  3  7  2  0  0  0  0
  4  8  1  0  0  0  0
  4  9  1  0  0  0  0
  5 10  2  0  0  0  0
  6 11  1  0  0  0  0
  7 12  1  0  0  0  0
  8 13  1  0  0  0  0
  8 14  2  0  0  0  0
  9 15  1  0  0  0  0
 11 16  2  0  0  0  0
 11 17  1  0  0  0  0
 12 18  2  0  0  0  0
 12 19  1  0  0  0  0
 13 20  1  0  0  0  0
 14 21  1  0  0  0  0
 15 22  2  0  0  0  0
 16 23  1  0  0  0  0
 17 24  2  0  0  0  0
 17 25  1  0  0  0  0
 18 26  1  0  0  0  0
 19 27  2  0  0  0  0
 23 28  1  0  0  0  0
 26 29  2  0  0  0  0
 26 30  1  0  0  0  0
 28 31  1  0  0  0  0
 28 32  1  0  0  0  0
  6  9  2  0  0  0  0
 10 14  1  0  0  0  0
 16 22  1  0  0  0  0
 24 28  1  0  0  0  0
 27 29  1  0  0  0  0
M  END
>  <MolRegNo>
2038949

>  <m>
=

>  <Value>
570

>  <Unit>
nM

>  <Type>
Ki

>  <pValue>
6.24

>  <Ligand Efficiency>
0.27

>  <Binding Efficiency>
14.67

>  <Surface Efficiency>
12.31

>  <Assay Index>
296494

>  <Assay Category>


>  <Assay Organism>


>  <Target ID>
56

>  <Target Name>
Androgen Receptor

>  <Target Organism>
Homo sapiens

>  <Target Description>
Target is a single protein chain

>  <Sequence Accession>
P10275

>  <Reference>
Bioorg Med Chem Lett 17 (15), 4158-4162 (2007)

>  <Pubmed ID>
17553679

>  <DOI>
10.1016/j.bmcl.2007.05.062

$$$$
2038948
Actelion Java MolfileCreator 1.0

 37 41  0  0  0  0  0  0  0  0999 V2000
    0.0000   -0.0000   -0.0000 F   0  0  0  0  0  0  0  0  0  0  0  0
    0.0000   -1.4929   -0.0000 C   0  0  0  0  0  0  0  0  0  0  0  0
    1.2898   -2.2333   -0.0000 C   0  0  0  0  0  0  0  0  0  0  0  0
   -1.3137   -2.2453   -0.0000 C   0  0  0  0  0  0  0  0  0  0  0  0
    1.2779   -3.7262   -0.0000 C   0  0  0  0  0  0  0  0  0  0  0  0
   -1.3137   -3.7262   -0.0000 C   0  0  0  0  0  0  0  0  0  0  0  0
   -0.0358   -4.4666   -0.0000 C   0  0  0  0  0  0  0  0  0  0  0  0
    2.5677   -4.4666   -0.0000 C   0  0  0  0  0  0  0  0  0  0  0  0
   -0.0478   -5.9595   -0.0000 C   0  0  0  0  0  0  0  0  0  0  0  0
    3.8576   -3.7023   -0.0000 O   0  0  0  0  0  0  0  0  0  0  0  0
   -1.3615   -6.7000   -0.0000 C   0  0  0  0  0  0  0  0  0  0  0  0
    5.1474   -4.4428   -0.0000 C   0  0  0  0  0  0  0  0  0  0  0  0
   -2.6871   -5.9356   -0.0000 O   0  0  0  0  0  0  0  0  0  0  0  0
   -1.3615   -8.2048   -0.0000 C   0  0  0  0  0  0  0  0  0  0  0  0
    6.4372   -3.6784   -0.0000 O   0  0  0  0  0  0  0  0  0  0  0  0
   -4.0009   -6.6880   -0.0000 C   0  0  0  0  0  0  0  0  0  0  0  0
   -0.0717   -8.9452   -0.0000 C   0  0  0  0  0  0  0  0  0  0  0  0
   -2.6871   -8.9452   -0.0000 C   0  0  0  0  0  0  0  0  0  0  0  0
    7.7270   -4.4189   -0.0000 C   0  0  0  0  0  0  0  0  0  0  0  0
   -4.0009   -8.1928   -0.0000 C   0  0  0  0  0  0  0  0  0  0  0  0
   -5.3146   -5.9356   -0.0000 C   0  0  0  0  0  0  0  0  0  0  0  0
   -0.0836  -10.4381   -0.0000 C   0  0  0  0  0  0  0  0  0  0  0  0
    1.2062   -8.1809   -0.0000 C   0  0  0  0  0  0  0  0  0  0  0  0
   -2.6991  -10.4381   -0.0000 C   0  0  0  0  0  0  0  0  0  0  0  0
   -5.3146   -8.9333   -0.0000 C   0  0  0  0  0  0  0  0  0  0  0  0
   -6.6283   -6.6761   -0.0000 C   0  0  0  0  0  0  0  0  0  0  0  0
    1.2062  -11.1666   -0.0000 N   0  0  0  0  0  0  0  0  0  0  0  0
   -1.4093  -11.2024   -0.0000 C   0  0  0  0  0  0  0  0  0  0  0  0
    2.4961   -8.9094   -0.0000 C   0  0  0  0  0  0  0  0  0  0  0  0
    1.1823   -6.6641   -0.0000 C   0  0  0  0  0  0  0  0  0  0  0  0
   -5.3265  -10.4261   -0.0000 O   0  0  0  0  0  0  0  0  0  0  0  0
   -6.6283   -8.1689   -0.0000 C   0  0  0  0  0  0  0  0  0  0  0  0
    2.4961  -10.4022   -0.0000 C   0  0  0  0  0  0  0  0  0  0  0  0
   -6.6402  -11.1666   -0.0000 C   0  0  0  0  0  0  0  0  0  0  0  0
   -7.9420   -8.9094   -0.0000 O   0  0  0  0  0  0  0  0  0  0  0  0
    2.4722  -11.8832   -0.0000 C   0  0  0  0  0  0  0  0  0  0  0  0
    3.7978   -9.6498   -0.0000 C   0  0  0  0  0  0  0  0  0  0  0  0
  1  2  1  0  0  0  0
  2  3  2  0  0  0  0
  2  4  1  0  0  0  0
  3  5  1  0  0  0  0
  4  6  2  0  0  0  0
  5  7  2  0  0  0  0
  5  8  1  0  0  0  0
  7  9  1  0  0  0  0
  8 10  1  0  0  0  0
  9 11  2  0  0  0  0
 10 12  1  0  0  0  0
 11 13  1  0  0  0  0
 11 14  1  0  0  0  0
 12 15  1  0  0  0  0
 13 16  1  0  0  0  0
 14 17  2  0  0  0  0
 14 18  1  0  0  0  0
 15 19  1  0  0  0  0
 16 20  2  0  0  0  0
 16 21  1  0  0  0  0
 17 22  1  0  0  0  0
 17 23  1  0  0  0  0
 18 24  2  0  0  0  0
 20 25  1  0  0  0  0
 21 26  2  0  0  0  0
 22 27  1  0  0  0  0
 22 28  2  0  0  0  0
 23 29  2  0  0  0  0
 23 30  1  0  0  0  0
 25 31  1  0  0  0  0
 25 32  2  0  0  0  0
 27 33  1  0  0  0  0
 31 34  1  0  0  0  0
 32 35  1  0  0  0  0
 33 36  1  0  0  0  0
 33 37  1  0  0  0  0
  6  7  1  0  0  0  0
 18 20  1  0  0  0  0
 24 28  1  0  0  0  0
 26 32  1  0  0  0  0
 29 33  1  0  0  0  0
M  END
>  <MolRegNo>
2038948

>  <m>
=

>  <Value>
630

>  <Unit>
nM

>  <Type>
Ki

>  <pValue>
6.2

>  <Ligand Efficiency>
0.23

>  <Binding Efficiency>
12.31

>  <Surface Efficiency>
8.96

>  <Assay Index>
296494

>  <Assay Category>


>  <Assay Organism>


>  <Target ID>
56

>  <Target Name>
Androgen Receptor

>  <Target Organism>
Homo sapiens

>  <Target Description>
Target is a single protein chain

>  <Sequence Accession>
P10275

>  <Reference>
Bioorg Med Chem Lett 17 (15), 4158-4162 (2007)

>  <Pubmed ID>
17553679

>  <DOI>
10.1016/j.bmcl.2007.05.062

$$$$
2038946
Actelion Java MolfileCreator 1.0

 34 38  0  0  0  0  0  0  0  0999 V2000
    0.0000   -0.0000   -0.0000 F   0  0  0  0  0  0  0  0  0  0  0  0
    0.0000   -1.4922   -0.0000 C   0  0  0  0  0  0  0  0  0  0  0  0
    1.2892   -2.2323   -0.0000 C   0  0  0  0  0  0  0  0  0  0  0  0
   -1.3131   -2.2442   -0.0000 C   0  0  0  0  0  0  0  0  0  0  0  0
    1.2773   -3.7245   -0.0000 C   0  0  0  0  0  0  0  0  0  0  0  0
   -1.3131   -3.7245   -0.0000 C   0  0  0  0  0  0  0  0  0  0  0  0
   -0.0358   -4.4646   -0.0000 C   0  0  0  0  0  0  0  0  0  0  0  0
    2.5665   -4.4646   -0.0000 C   0  0  0  0  0  0  0  0  0  0  0  0
   -0.0477   -5.9568   -0.0000 C   0  0  0  0  0  0  0  0  0  0  0  0
    3.8558   -3.7006   -0.0000 O   0  0  0  0  0  0  0  0  0  0  0  0
   -1.3609   -6.6969   -0.0000 C   0  0  0  0  0  0  0  0  0  0  0  0
   -2.6859   -5.9329   -0.0000 O   0  0  0  0  0  0  0  0  0  0  0  0
   -1.3609   -8.2010   -0.0000 C   0  0  0  0  0  0  0  0  0  0  0  0
   -3.9990   -6.6849   -0.0000 C   0  0  0  0  0  0  0  0  0  0  0  0
   -0.0716   -8.9411   -0.0000 C   0  0  0  0  0  0  0  0  0  0  0  0
   -2.6859   -8.9411   -0.0000 C   0  0  0  0  0  0  0  0  0  0  0  0
   -3.9990   -8.1891   -0.0000 C   0  0  0  0  0  0  0  0  0  0  0  0
   -5.3121   -5.9329   -0.0000 C   0  0  0  0  0  0  0  0  0  0  0  0
   -0.0836  -10.4333   -0.0000 C   0  0  0  0  0  0  0  0  0  0  0  0
    1.2057   -8.1771   -0.0000 C   0  0  0  0  0  0  0  0  0  0  0  0
   -2.6979  -10.4333   -0.0000 C   0  0  0  0  0  0  0  0  0  0  0  0
   -5.3121   -8.9292   -0.0000 C   0  0  0  0  0  0  0  0  0  0  0  0
   -6.6253   -6.6730   -0.0000 C   0  0  0  0  0  0  0  0  0  0  0  0
    1.2057  -11.1615   -0.0000 N   0  0  0  0  0  0  0  0  0  0  0  0
   -1.4086  -11.1973   -0.0000 C   0  0  0  0  0  0  0  0  0  0  0  0
    2.4949   -8.9053   -0.0000 C   0  0  0  0  0  0  0  0  0  0  0  0
    1.1818   -6.6611   -0.0000 C   0  0  0  0  0  0  0  0  0  0  0  0
   -5.3241  -10.4213   -0.0000 O   0  0  0  0  0  0  0  0  0  0  0  0
   -6.6253   -8.1652   -0.0000 C   0  0  0  0  0  0  0  0  0  0  0  0
    2.4949  -10.3975   -0.0000 C   0  0  0  0  0  0  0  0  0  0  0  0
   -6.6372  -11.1615   -0.0000 C   0  0  0  0  0  0  0  0  0  0  0  0
   -7.9384   -8.9053   -0.0000 O   0  0  0  0  0  0  0  0  0  0  0  0
    2.4710  -11.8777   -0.0000 C   0  0  0  0  0  0  0  0  0  0  0  0
    3.7961   -9.6454   -0.0000 C   0  0  0  0  0  0  0  0  0  0  0  0
  1  2  1  0  0  0  0
  2  3  2  0  0  0  0
  2  4  1  0  0  0  0
  3  5  1  0  0  0  0
  4  6  2  0  0  0  0
  5  7  2  0  0  0  0
  5  8  1  0  0  0  0
  7  9  1  0  0  0  0
  8 10  1  0  0  0  0
  9 11  2  0  0  0  0
 11 12  1  0  0  0  0
 11 13  1  0  0  0  0
 12 14  1  0  0  0  0
 13 15  2  0  0  0  0
 13 16  1  0  0  0  0
 14 17  2  0  0  0  0
 14 18  1  0  0  0  0
 15 19  1  0  0  0  0
 15 20  1  0  0  0  0
 16 21  2  0  0  0  0
 17 22  1  0  0  0  0
 18 23  2  0  0  0  0
 19 24  1  0  0  0  0
 19 25  2  0  0  0  0
 20 26  2  0  0  0  0
 20 27  1  0  0  0  0
 22 28  1  0  0  0  0
 22 29  2  0  0  0  0
 24 30  1  0  0  0  0
 28 31  1  0  0  0  0
 29 32  1  0  0  0  0
 30 33  1  0  0  0  0
 30 34  1  0  0  0  0
  6  7  1  0  0  0  0
 16 17  1  0  0  0  0
 21 25  1  0  0  0  0
 23 29  1  0  0  0  0
 26 30  1  0  0  0  0
M  END
>  <MolRegNo>
2038946

>  <m>
=

>  <Value>
700

>  <Unit>
nM

>  <Type>
Ki

>  <pValue>
6.16

>  <Ligand Efficiency>
0.25

>  <Binding Efficiency>
13.39

>  <Surface Efficiency>
8.67

>  <Assay Index>
296494

>  <Assay Category>


>  <Assay Organism>


>  <Target ID>
56

>  <Target Name>
Androgen Receptor

>  <Target Organism>
Homo sapiens

>  <Target Description>
Target is a single protein chain

>  <Sequence Accession>
P10275

>  <Reference>
Bioorg Med Chem Lett 17 (15), 4158-4162 (2007)

>  <Pubmed ID>
17553679

>  <DOI>
10.1016/j.bmcl.2007.05.062

$$$$
190629
Actelion Java MolfileCreator 1.0

 25 28  0  0  1  0  0  0  0  0999 V2000
    0.0000   -0.0000   -0.0000 O   0  0  0  0  0  0  0  0  0  0  0  0
    1.3075    0.7488   -0.0000 C   0  0  0  0  0  0  0  0  0  0  0  0
    2.5793    0.0119   -0.0000 C   0  0  0  0  0  0  0  0  0  0  0  0
    1.2956    2.2584   -0.0000 C   0  0  0  0  0  0  0  0  0  0  0  0
    3.8630    0.7726   -0.0000 C   0  0  0  0  0  0  0  0  0  0  0  0
    2.5674    3.0191   -0.0000 C   0  0  0  0  0  0  0  0  0  0  0  0
    3.8511    2.2821   -0.0000 C   0  0  0  0  0  0  0  0  0  0  0  0
    5.1467    0.0357   -0.0000 C   0  0  0  0  0  0  0  0  0  0  0  0
    5.1348    3.0428   -0.0000 C   0  0  0  0  0  0  0  0  0  0  0  0
    3.8392    3.8036   -0.0000 C   0  0  0  0  0  0  0  0  0  0  0  0
    6.4304    0.7845   -0.0000 C   0  0  0  0  0  0  0  0  0  0  0  0
    6.4185    2.3059   -0.0000 C   0  0  0  0  0  0  0  0  0  0  0  0
    5.1348    4.5524   -0.0000 C   0  0  0  0  0  0  0  0  0  0  0  0
    7.7022    3.0547   -0.0000 C   0  0  0  0  0  0  0  0  0  0  0  0
    6.4304    5.3012   -0.0000 C   0  0  0  0  0  0  0  0  0  0  0  0
    7.7141    4.5524   -0.0000 C   0  0  0  0  0  0  0  0  0  0  0  0
    9.1167    2.5674   -0.0000 C   0  0  0  0  0  0  0  0  0  0  0  0
    9.1285    5.0159   -0.0000 C   0  0  0  0  0  0  0  0  0  0  0  0
    7.6903    6.0738   -0.0000 C   0  0  0  0  0  0  0  0  0  0  0  0
    9.9962    3.7917   -0.0000 C   0  0  0  0  0  0  0  0  0  0  0  0
    9.1048    6.5374   -0.0000 O   0  0  0  0  0  0  0  0  0  0  0  0
    7.7735    7.2862   -0.0000 C   0  0  0  0  0  0  0  0  0  0  0  0
    7.7497    8.7957   -0.0000 O   0  0  0  0  0  0  0  0  0  0  0  0
    6.4660    6.5255   -0.0000 C   0  0  0  0  0  0  0  0  0  0  0  0
    5.1586    7.2743   -0.0000 C   0  0  0  0  0  0  0  0  0  0  0  0
  1  2  2  0  0  0  0
  2  3  1  0  0  0  0
  2  4  1  0  0  0  0
  3  5  2  0  0  0  0
  4  6  1  0  0  0  0
  5  7  1  0  0  0  0
  5  8  1  0  0  0  0
  7  9  1  0  0  0  0
  7 10  1  1  0  0  0
  8 11  1  0  0  0  0
  9 12  1  0  0  0  0
  9 13  1  1  0  0  0
 12 14  1  0  0  0  0
 13 15  1  0  0  0  0
 14 16  1  0  0  0  0
 14 17  1  1  0  0  0
 16 18  1  0  0  0  0
 16 19  1  1  0  0  0
 17 20  1  0  0  0  0
 18 21  1  1  0  0  0
 21 22  1  0  0  0  0
 22 23  2  0  0  0  0
 22 24  1  0  0  0  0
 24 25  1  0  0  0  0
  6  7  1  0  0  0  0
 12 11  1  6  0  0  0
 15 16  1  0  0  0  0
 18 20  1  0  0  0  0
M  END
>  <MolRegNo>
190629

>  <m>
=

>  <Value>
0.25

>  <Unit>
nM

>  <Type>
Ki

>  <pValue>
9.6

>  <Ligand Efficiency>
0.52

>  <Binding Efficiency>
27.87

>  <Surface Efficiency>
22.14

>  <Assay Index>
296570

>  <Assay Category>


>  <Assay Organism>
Homo sapiens

>  <Target ID>
56

>  <Target Name>
Androgen Receptor

>  <Target Organism>
Homo sapiens

>  <Target Description>
Target is a single protein chain

>  <Sequence Accession>
P10275

>  <Reference>
Bioorg Med Chem Lett 17 (16), 4487-4490 (2007)

>  <Pubmed ID>
17574413

>  <DOI>
10.1016/j.bmcl.2007.06.007

$$$$
397283
Actelion Java MolfileCreator 1.0

 23 24  0  0  1  0  0  0  0  0999 V2000
    0.0000   -0.0000   -0.0000 Cl  0  0  0  0  0  0  0  0  0  0  0  0
   -1.3169    0.7525   -0.0000 C   0  0  0  0  0  0  0  0  0  0  0  0
   -1.3287    2.2575   -0.0000 C   0  0  0  0  0  0  0  0  0  0  0  0
   -2.6220    0.0118   -0.0000 C   0  0  0  0  0  0  0  0  0  0  0  0
   -0.0470    3.0218   -0.0000 C   0  0  0  0  0  0  0  0  0  0  0  0
   -2.6455    3.0218   -0.0000 C   0  0  0  0  0  0  0  0  0  0  0  0
   -3.9154    0.7760   -0.0000 C   0  0  0  0  0  0  0  0  0  0  0  0
   -2.6338   -1.4697   -0.0000 C   0  0  0  0  0  0  0  0  0  0  0  0
    1.2346    3.7743   -0.0000 N   0  0  0  0  0  0  0  0  0  0  0  0
   -3.9389    2.2810   -0.0000 C   0  0  0  0  0  0  0  0  0  0  0  0
   -5.2205    0.0470   -0.0000 S   0  0  0  0  0  0  0  0  0  0  0  0
   -4.4915   -1.2346   -0.0000 O   0  0  0  0  0  0  0  0  0  0  0  0
   -5.9731    1.3522   -0.0000 O   0  0  0  0  0  0  0  0  0  0  0  0
   -6.5610   -0.6232   -0.0000 N   0  0  0  0  0  0  0  0  0  0  0  0
   -7.9014    0.0705   -0.0000 C   0  0  0  0  0  0  0  0  0  0  0  0
   -6.8079   -2.0929   -0.0000 C   0  0  0  0  0  0  0  0  0  0  0  0
   -8.1483    1.5521   -0.0000 C   0  0  0  0  0  0  0  0  0  0  0  0
   -8.9713   -0.9759   -0.0000 C   0  0  0  0  0  0  0  0  0  0  0  0
   -8.3011   -2.3163   -0.0000 C   0  0  0  0  0  0  0  0  0  0  0  0
   -9.5592    2.0929   -0.0000 O   0  0  0  0  0  0  0  0  0  0  0  0
   -7.0078    2.5044   -0.0000 O   0  0  0  0  0  0  0  0  0  0  0  0
  -10.4646   -0.7290   -0.0000 O   0  0  0  0  0  0  0  0  0  0  0  0
   -7.0313    4.0095   -0.0000 C   0  0  0  0  0  0  0  0  0  0  0  0
  1  2  1  0  0  0  0
  2  3  2  0  0  0  0
  2  4  1  0  0  0  0
  3  5  1  0  0  0  0
  3  6  1  0  0  0  0
  4  7  2  0  0  0  0
  4  8  1  0  0  0  0
  5  9  3  0  0  0  0
  6 10  2  0  0  0  0
  7 11  1  0  0  0  0
 11 12  2  0  0  0  0
 11 13  2  0  0  0  0
 11 14  1  0  0  0  0
 14 15  1  0  0  0  0
 14 16  1  0  0  0  0
 15 17  1  1  0  0  0
 15 18  1  0  0  0  0
 16 19  1  0  0  0  0
 17 20  2  0  0  0  0
 17 21  1  0  0  0  0
 18 22  1  1  0  0  0
 21 23  1  0  0  0  0
  7 10  1  0  0  0  0
 18 19  1  0  0  0  0
M  END
>  <MolRegNo>
397283

>  <m>
=

>  <Value>
36

>  <Unit>
nM

>  <Type>
Ki

>  <pValue>
7.44

>  <Ligand Efficiency>
0.44

>  <Binding Efficiency>
20.75

>  <Surface Efficiency>
6.91

>  <Assay Index>
296570

>  <Assay Category>


>  <Assay Organism>
Homo sapiens

>  <Target ID>
56

>  <Target Name>
Androgen Receptor

>  <Target Organism>
Homo sapiens

>  <Target Description>
Target is a single protein chain

>  <Sequence Accession>
P10275

>  <Reference>
Bioorg Med Chem Lett 17 (16), 4487-4490 (2007)

>  <Pubmed ID>
17574413

>  <DOI>
10.1016/j.bmcl.2007.06.007

$$$$
397277
Actelion Java MolfileCreator 1.0

 21 23  0  0  1  0  0  0  0  0999 V2000
    0.0000   -0.0000   -0.0000 Cl  0  0  0  0  0  0  0  0  0  0  0  0
   -0.7310    1.3205   -0.0000 C   0  0  0  0  0  0  0  0  0  0  0  0
    0.0354    2.6056   -0.0000 C   0  0  0  0  0  0  0  0  0  0  0  0
   -2.2401    1.3677   -0.0000 C   0  0  0  0  0  0  0  0  0  0  0  0
    1.5209    2.5821   -0.0000 C   0  0  0  0  0  0  0  0  0  0  0  0
   -0.7074    3.9379   -0.0000 C   0  0  0  0  0  0  0  0  0  0  0  0
   -2.9593    2.6882   -0.0000 C   0  0  0  0  0  0  0  0  0  0  0  0
   -3.0183    0.1061   -0.0000 C   0  0  0  0  0  0  0  0  0  0  0  0
    2.9947    2.5585   -0.0000 N   0  0  0  0  0  0  0  0  0  0  0  0
   -2.2166    3.9851   -0.0000 C   0  0  0  0  0  0  0  0  0  0  0  0
   -4.4685    2.7353   -0.0000 N   0  0  0  0  0  0  0  0  0  0  0  0
   -5.3763    1.5563   -0.0000 S   0  0  0  0  0  0  0  0  0  0  0  0
   -5.3292    3.9733   -0.0000 C   0  0  0  0  0  0  0  0  0  0  0  0
   -6.1545    0.2712   -0.0000 O   0  0  0  0  0  0  0  0  0  0  0  0
   -3.9615    1.1201   -0.0000 O   0  0  0  0  0  0  0  0  0  0  0  0
   -6.8030    2.0515   -0.0000 N   0  0  0  0  0  0  0  0  0  0  0  0
   -6.7676    3.5489   -0.0000 C   0  0  0  0  0  0  0  0  0  0  0  0
   -8.2414    1.6388   -0.0000 C   0  0  0  0  0  0  0  0  0  0  0  0
   -8.1942    4.0558   -0.0000 C   0  0  0  0  0  0  0  0  0  0  0  0
   -9.1020    2.8768   -0.0000 C   0  0  0  0  0  0  0  0  0  0  0  0
   -8.6422    5.4942   -0.0000 O   0  0  0  0  0  0  0  0  0  0  0  0
  1  2  1  0  0  0  0
  2  3  2  0  0  0  0
  2  4  1  0  0  0  0
  3  5  1  0  0  0  0
  3  6  1  0  0  0  0
  4  7  2  0  0  0  0
  4  8  1  0  0  0  0
  5  9  3  0  0  0  0
  6 10  2  0  0  0  0
  7 11  1  0  0  0  0
 11 12  1  0  0  0  0
 11 13  1  0  0  0  0
 12 14  2  0  0  0  0
 12 15  2  0  0  0  0
 12 16  1  0  0  0  0
 13 17  1  0  0  0  0
 16 18  1  0  0  0  0
 17 19  1  0  0  0  0
 18 20  1  0  0  0  0
 19 21  1  1  0  0  0
  7 10  1  0  0  0  0
 17 16  1  1  0  0  0
 19 20  1  0  0  0  0
M  END
>  <MolRegNo>
397277

>  <m>
=

>  <Value>
14

>  <Unit>
nM

>  <Type>
Ki

>  <pValue>
7.85

>  <Ligand Efficiency>
0.51

>  <Binding Efficiency>
23.96

>  <Surface Efficiency>
9.28

>  <Assay Index>
296570

>  <Assay Category>


>  <Assay Organism>
Homo sapiens

>  <Target ID>
56

>  <Target Name>
Androgen Receptor

>  <Target Organism>
Homo sapiens

>  <Target Description>
Target is a single protein chain

>  <Sequence Accession>
P10275

>  <Reference>
Bioorg Med Chem Lett 17 (16), 4487-4490 (2007)

>  <Pubmed ID>
17574413

>  <DOI>
10.1016/j.bmcl.2007.06.007

$$$$
397274
Actelion Java MolfileCreator 1.0

 22 24  0  0  1  0  0  0  0  0999 V2000
    0.0000   -0.0000   -0.0000 Cl  0  0  0  0  0  0  0  0  0  0  0  0
   -0.7293    1.3175   -0.0000 C   0  0  0  0  0  0  0  0  0  0  0  0
    0.0353    2.6115   -0.0000 C   0  0  0  0  0  0  0  0  0  0  0  0
   -2.2233    1.3646   -0.0000 C   0  0  0  0  0  0  0  0  0  0  0  0
    1.5175    2.5880   -0.0000 C   0  0  0  0  0  0  0  0  0  0  0  0
   -0.6940    3.9407   -0.0000 C   0  0  0  0  0  0  0  0  0  0  0  0
   -2.9526    2.6821   -0.0000 C   0  0  0  0  0  0  0  0  0  0  0  0
   -3.0114    0.1059   -0.0000 C   0  0  0  0  0  0  0  0  0  0  0  0
    2.9997    2.5644   -0.0000 N   0  0  0  0  0  0  0  0  0  0  0  0
   -2.1998    3.9760   -0.0000 C   0  0  0  0  0  0  0  0  0  0  0  0
   -4.4583    2.7291   -0.0000 N   0  0  0  0  0  0  0  0  0  0  0  0
   -5.3759    1.5528   -0.0000 S   0  0  0  0  0  0  0  0  0  0  0  0
   -5.3288    3.9643   -0.0000 C   0  0  0  0  0  0  0  0  0  0  0  0
   -6.1405    0.2706   -0.0000 O   0  0  0  0  0  0  0  0  0  0  0  0
   -3.9643    1.1175   -0.0000 O   0  0  0  0  0  0  0  0  0  0  0  0
   -6.7993    2.0586   -0.0000 N   0  0  0  0  0  0  0  0  0  0  0  0
   -6.7757    3.5526   -0.0000 C   0  0  0  0  0  0  0  0  0  0  0  0
   -4.8465    5.3876   -0.0000 C   0  0  0  0  0  0  0  0  0  0  0  0
   -8.2344    1.6351   -0.0000 C   0  0  0  0  0  0  0  0  0  0  0  0
   -8.1991    4.0584   -0.0000 C   0  0  0  0  0  0  0  0  0  0  0  0
   -9.1049    2.8703   -0.0000 C   0  0  0  0  0  0  0  0  0  0  0  0
   -8.6579    5.5053   -0.0000 O   0  0  0  0  0  0  0  0  0  0  0  0
  1  2  1  0  0  0  0
  2  3  2  0  0  0  0
  2  4  1  0  0  0  0
  3  5  1  0  0  0  0
  3  6  1  0  0  0  0
  4  7  2  0  0  0  0
  4  8  1  0  0  0  0
  5  9  3  0  0  0  0
  6 10  2  0  0  0  0
  7 11  1  0  0  0  0
 11 12  1  0  0  0  0
 11 13  1  0  0  0  0
 12 14  2  0  0  0  0
 12 15  2  0  0  0  0
 12 16  1  0  0  0  0
 13 17  1  0  0  0  0
 13 18  1  0  0  0  0
 16 19  1  0  0  0  0
 17 20  1  0  0  0  0
 19 21  1  0  0  0  0
 20 22  1  6  0  0  0
  7 10  1  0  0  0  0
 17 16  1  1  0  0  0
 20 21  1  0  0  0  0
M  END
>  <MolRegNo>
397274

>  <m>
=

>  <Value>
20

>  <Unit>
nM

>  <Type>
Ki

>  <pValue>
7.7

>  <Ligand Efficiency>
0.48

>  <Binding Efficiency>
22.52

>  <Surface Efficiency>
9.1

>  <Assay Index>
296570

>  <Assay Category>


>  <Assay Organism>
Homo sapiens

>  <Target ID>
56

>  <Target Name>
Androgen Receptor

>  <Target Organism>
Homo sapiens

>  <Target Description>
Target is a single protein chain

>  <Sequence Accession>
P10275

>  <Reference>
Bioorg Med Chem Lett 17 (16), 4487-4490 (2007)

>  <Pubmed ID>
17574413

>  <DOI>
10.1016/j.bmcl.2007.06.007

$$$$
397272
Actelion Java MolfileCreator 1.0

 21 23  0  0  1  0  0  0  0  0999 V2000
    0.0000   -0.0000   -0.0000 Cl  0  0  0  0  0  0  0  0  0  0  0  0
   -0.7294    1.3176   -0.0000 C   0  0  0  0  0  0  0  0  0  0  0  0
    0.0353    2.6117   -0.0000 C   0  0  0  0  0  0  0  0  0  0  0  0
   -2.2235    1.3647   -0.0000 C   0  0  0  0  0  0  0  0  0  0  0  0
    1.5176    2.5882   -0.0000 C   0  0  0  0  0  0  0  0  0  0  0  0
   -0.6941    3.9411   -0.0000 C   0  0  0  0  0  0  0  0  0  0  0  0
   -2.9529    2.6823   -0.0000 C   0  0  0  0  0  0  0  0  0  0  0  0
   -3.0117    0.1059   -0.0000 C   0  0  0  0  0  0  0  0  0  0  0  0
    2.9999    2.5646   -0.0000 N   0  0  0  0  0  0  0  0  0  0  0  0
   -2.1999    3.9764   -0.0000 C   0  0  0  0  0  0  0  0  0  0  0  0
   -4.4587    2.7293   -0.0000 N   0  0  0  0  0  0  0  0  0  0  0  0
   -5.3763    1.5529   -0.0000 S   0  0  0  0  0  0  0  0  0  0  0  0
   -5.3293    3.9646   -0.0000 C   0  0  0  0  0  0  0  0  0  0  0  0
   -6.1410    0.2706   -0.0000 O   0  0  0  0  0  0  0  0  0  0  0  0
   -3.9646    1.1176   -0.0000 O   0  0  0  0  0  0  0  0  0  0  0  0
   -6.7998    2.0588   -0.0000 N   0  0  0  0  0  0  0  0  0  0  0  0
   -6.7763    3.5528   -0.0000 C   0  0  0  0  0  0  0  0  0  0  0  0
   -8.2351    1.6353   -0.0000 C   0  0  0  0  0  0  0  0  0  0  0  0
   -8.1998    4.0587   -0.0000 C   0  0  0  0  0  0  0  0  0  0  0  0
   -9.1056    2.8705   -0.0000 C   0  0  0  0  0  0  0  0  0  0  0  0
   -8.6586    5.5057   -0.0000 O   0  0  0  0  0  0  0  0  0  0  0  0
  1  2  1  0  0  0  0
  2  3  2  0  0  0  0
  2  4  1  0  0  0  0
  3  5  1  0  0  0  0
  3  6  1  0  0  0  0
  4  7  2  0  0  0  0
  4  8  1  0  0  0  0
  5  9  3  0  0  0  0
  6 10  2  0  0  0  0
  7 11  1  0  0  0  0
 11 12  1  0  0  0  0
 11 13  1  0  0  0  0
 12 14  2  0  0  0  0
 12 15  2  0  0  0  0
 12 16  1  0  0  0  0
 13 17  1  0  0  0  0
 16 18  1  0  0  0  0
 17 19  1  0  0  0  0
 18 20  1  0  0  0  0
 19 21  1  6  0  0  0
  7 10  1  0  0  0  0
 17 16  1  1  0  0  0
 19 20  1  0  0  0  0
M  END
>  <MolRegNo>
397272

>  <m>
=

>  <Value>
189

>  <Unit>
nM

>  <Type>
Ki

>  <pValue>
6.72

>  <Ligand Efficiency>
0.44

>  <Binding Efficiency>
20.51

>  <Surface Efficiency>
7.94

>  <Assay Index>
296570

>  <Assay Category>


>  <Assay Organism>
Homo sapiens

>  <Target ID>
56

>  <Target Name>
Androgen Receptor

>  <Target Organism>
Homo sapiens

>  <Target Description>
Target is a single protein chain

>  <Sequence Accession>
P10275

>  <Reference>
Bioorg Med Chem Lett 17 (16), 4487-4490 (2007)

>  <Pubmed ID>
17574413

>  <DOI>
10.1016/j.bmcl.2007.06.007

$$$$
397271
Actelion Java MolfileCreator 1.0

 22 24  0  0  1  0  0  0  0  0999 V2000
    0.0000   -0.0000   -0.0000 Cl  0  0  0  0  0  0  0  0  0  0  0  0
   -0.7292    1.3173   -0.0000 C   0  0  0  0  0  0  0  0  0  0  0  0
    0.0353    2.6110   -0.0000 C   0  0  0  0  0  0  0  0  0  0  0  0
   -2.2229    1.3643   -0.0000 C   0  0  0  0  0  0  0  0  0  0  0  0
    1.5172    2.5875   -0.0000 C   0  0  0  0  0  0  0  0  0  0  0  0
   -0.7057    3.9400   -0.0000 C   0  0  0  0  0  0  0  0  0  0  0  0
   -2.9521    2.6816   -0.0000 C   0  0  0  0  0  0  0  0  0  0  0  0
   -2.9991    0.1059   -0.0000 C   0  0  0  0  0  0  0  0  0  0  0  0
    2.9991    2.5640   -0.0000 N   0  0  0  0  0  0  0  0  0  0  0  0
   -2.2111    3.9753   -0.0000 C   0  0  0  0  0  0  0  0  0  0  0  0
   -4.4575    2.7286   -0.0000 N   0  0  0  0  0  0  0  0  0  0  0  0
   -5.3749    1.5525   -0.0000 S   0  0  0  0  0  0  0  0  0  0  0  0
   -5.3279    3.9636   -0.0000 C   0  0  0  0  0  0  0  0  0  0  0  0
   -6.1512    0.2705   -0.0000 O   0  0  0  0  0  0  0  0  0  0  0  0
   -3.9636    1.1173   -0.0000 O   0  0  0  0  0  0  0  0  0  0  0  0
   -6.7981    2.0582   -0.0000 N   0  0  0  0  0  0  0  0  0  0  0  0
   -4.8457    5.3867   -0.0000 O   0  0  0  0  0  0  0  0  0  0  0  0
   -6.7745    3.5519   -0.0000 C   0  0  0  0  0  0  0  0  0  0  0  0
   -8.2447    1.6348   -0.0000 C   0  0  0  0  0  0  0  0  0  0  0  0
   -8.1977    4.0577   -0.0000 C   0  0  0  0  0  0  0  0  0  0  0  0
   -9.1150    2.8698   -0.0000 C   0  0  0  0  0  0  0  0  0  0  0  0
  -10.6205    2.9051   -0.0000 O   0  0  0  0  0  0  0  0  0  0  0  0
  1  2  1  0  0  0  0
  2  3  2  0  0  0  0
  2  4  1  0  0  0  0
  3  5  1  0  0  0  0
  3  6  1  0  0  0  0
  4  7  2  0  0  0  0
  4  8  1  0  0  0  0
  5  9  3  0  0  0  0
  6 10  2  0  0  0  0
  7 11  1  0  0  0  0
 11 12  1  0  0  0  0
 11 13  1  0  0  0  0
 12 14  2  0  0  0  0
 12 15  2  0  0  0  0
 12 16  1  0  0  0  0
 13 17  2  0  0  0  0
 13 18  1  0  0  0  0
 16 19  1  0  0  0  0
 18 20  1  0  0  0  0
 19 21  1  0  0  0  0
 21 22  1  1  0  0  0
  7 10  1  0  0  0  0
 18 16  1  1  0  0  0
 20 21  1  0  0  0  0
M  END
>  <MolRegNo>
397271

>  <m>
=

>  <Value>
44

>  <Unit>
nM

>  <Type>
Ki

>  <pValue>
7.36

>  <Ligand Efficiency>
0.46

>  <Binding Efficiency>
21.52

>  <Surface Efficiency>
7.23

>  <Assay Index>
296570

>  <Assay Category>


>  <Assay Organism>
Homo sapiens

>  <Target ID>
56

>  <Target Name>
Androgen Receptor

>  <Target Organism>
Homo sapiens

>  <Target Description>
Target is a single protein chain

>  <Sequence Accession>
P10275

>  <Reference>
Bioorg Med Chem Lett 17 (16), 4487-4490 (2007)

>  <Pubmed ID>
17574413

>  <DOI>
10.1016/j.bmcl.2007.06.007

$$$$
397269
Actelion Java MolfileCreator 1.0

 23 25  0  0  1  0  0  0  0  0999 V2000
    0.0000   -0.0000   -0.0000 Cl  0  0  0  0  0  0  0  0  0  0  0  0
   -0.7218    1.3253   -0.0000 C   0  0  0  0  0  0  0  0  0  0  0  0
    0.0355    2.6151   -0.0000 C   0  0  0  0  0  0  0  0  0  0  0  0
   -2.2246    1.3726   -0.0000 C   0  0  0  0  0  0  0  0  0  0  0  0
    1.5146    2.5914   -0.0000 C   0  0  0  0  0  0  0  0  0  0  0  0
   -0.6981    3.9404   -0.0000 C   0  0  0  0  0  0  0  0  0  0  0  0
   -2.9582    2.6979   -0.0000 C   0  0  0  0  0  0  0  0  0  0  0  0
   -3.0056    0.1183   -0.0000 C   0  0  0  0  0  0  0  0  0  0  0  0
    2.9937    2.5678   -0.0000 N   0  0  0  0  0  0  0  0  0  0  0  0
   -2.2009    3.9759   -0.0000 C   0  0  0  0  0  0  0  0  0  0  0  0
   -4.4610    2.7452   -0.0000 N   0  0  0  0  0  0  0  0  0  0  0  0
   -5.3840    1.5620   -0.0000 S   0  0  0  0  0  0  0  0  0  0  0  0
   -5.3248    3.9877   -0.0000 C   0  0  0  0  0  0  0  0  0  0  0  0
   -6.1531    0.2840   -0.0000 O   0  0  0  0  0  0  0  0  0  0  0  0
   -3.9640    1.1360   -0.0000 O   0  0  0  0  0  0  0  0  0  0  0  0
   -6.8040    2.0708   -0.0000 N   0  0  0  0  0  0  0  0  0  0  0  0
   -4.8397    5.4077   -0.0000 O   0  0  0  0  0  0  0  0  0  0  0  0
   -6.7685    3.5736   -0.0000 C   0  0  0  0  0  0  0  0  0  0  0  0
   -8.2357    1.6448   -0.0000 C   0  0  0  0  0  0  0  0  0  0  0  0
   -8.1884    4.0705   -0.0000 C   0  0  0  0  0  0  0  0  0  0  0  0
   -6.7921    5.0882   -0.0000 C   0  0  0  0  0  0  0  0  0  0  0  0
   -9.0995    2.8872   -0.0000 C   0  0  0  0  0  0  0  0  0  0  0  0
   -8.6381    5.5142   -0.0000 O   0  0  0  0  0  0  0  0  0  0  0  0
  1  2  1  0  0  0  0
  2  3  2  0  0  0  0
  2  4  1  0  0  0  0
  3  5  1  0  0  0  0
  3  6  1  0  0  0  0
  4  7  2  0  0  0  0
  4  8  1  0  0  0  0
  5  9  3  0  0  0  0
  6 10  2  0  0  0  0
  7 11  1  0  0  0  0
 11 12  1  0  0  0  0
 11 13  1  0  0  0  0
 12 14  2  0  0  0  0
 12 15  2  0  0  0  0
 12 16  1  0  0  0  0
 13 17  2  0  0  0  0
 13 18  1  0  0  0  0
 16 19  1  0  0  0  0
 18 20  1  0  0  0  0
 18 21  1  6  0  0  0
 19 22  1  0  0  0  0
 20 23  1  1  0  0  0
  7 10  1  0  0  0  0
 16 18  1  0  0  0  0
 20 22  1  0  0  0  0
M  END
>  <MolRegNo>
397269

>  <m>
=

>  <Value>
8.2

>  <Unit>
nM

>  <Type>
Ki

>  <pValue>
8.09

>  <Ligand Efficiency>
0.48

>  <Binding Efficiency>
22.73

>  <Surface Efficiency>
7.95

>  <Assay Index>
296570

>  <Assay Category>


>  <Assay Organism>
Homo sapiens

>  <Target ID>
56

>  <Target Name>
Androgen Receptor

>  <Target Organism>
Homo sapiens

>  <Target Description>
Target is a single protein chain

>  <Sequence Accession>
P10275

>  <Reference>
Bioorg Med Chem Lett 17 (16), 4487-4490 (2007)

>  <Pubmed ID>
17574413

>  <DOI>
10.1016/j.bmcl.2007.06.007

$$$$
397268
Actelion Java MolfileCreator 1.0

 22 24  0  0  1  0  0  0  0  0999 V2000
    0.0000   -0.0000   -0.0000 Cl  0  0  0  0  0  0  0  0  0  0  0  0
   -0.7293    1.3175   -0.0000 C   0  0  0  0  0  0  0  0  0  0  0  0
    0.0353    2.6115   -0.0000 C   0  0  0  0  0  0  0  0  0  0  0  0
   -2.2233    1.3646   -0.0000 C   0  0  0  0  0  0  0  0  0  0  0  0
    1.5175    2.5880   -0.0000 C   0  0  0  0  0  0  0  0  0  0  0  0
   -0.6940    3.9407   -0.0000 C   0  0  0  0  0  0  0  0  0  0  0  0
   -2.9526    2.6821   -0.0000 C   0  0  0  0  0  0  0  0  0  0  0  0
   -3.0114    0.1059   -0.0000 C   0  0  0  0  0  0  0  0  0  0  0  0
    2.9997    2.5644   -0.0000 N   0  0  0  0  0  0  0  0  0  0  0  0
   -2.1998    3.9760   -0.0000 C   0  0  0  0  0  0  0  0  0  0  0  0
   -4.4583    2.7291   -0.0000 N   0  0  0  0  0  0  0  0  0  0  0  0
   -5.3759    1.5528   -0.0000 S   0  0  0  0  0  0  0  0  0  0  0  0
   -5.3288    3.9643   -0.0000 C   0  0  0  0  0  0  0  0  0  0  0  0
   -3.9643    1.1175   -0.0000 O   0  0  0  0  0  0  0  0  0  0  0  0
   -6.1405    0.2706   -0.0000 O   0  0  0  0  0  0  0  0  0  0  0  0
   -6.7993    2.0586   -0.0000 N   0  0  0  0  0  0  0  0  0  0  0  0
   -4.8465    5.3876   -0.0000 O   0  0  0  0  0  0  0  0  0  0  0  0
   -6.7757    3.5526   -0.0000 C   0  0  0  0  0  0  0  0  0  0  0  0
   -8.2344    1.6351   -0.0000 C   0  0  0  0  0  0  0  0  0  0  0  0
   -8.1991    4.0584   -0.0000 C   0  0  0  0  0  0  0  0  0  0  0  0
   -9.1049    2.8703   -0.0000 C   0  0  0  0  0  0  0  0  0  0  0  0
   -8.6579    5.5053   -0.0000 O   0  0  0  0  0  0  0  0  0  0  0  0
  1  2  1  0  0  0  0
  2  3  2  0  0  0  0
  2  4  1  0  0  0  0
  3  5  1  0  0  0  0
  3  6  1  0  0  0  0
  4  7  2  0  0  0  0
  4  8  1  0  0  0  0
  5  9  3  0  0  0  0
  6 10  2  0  0  0  0
  7 11  1  0  0  0  0
 11 12  1  0  0  0  0
 11 13  1  0  0  0  0
 12 14  2  0  0  0  0
 12 15  2  0  0  0  0
 12 16  1  0  0  0  0
 13 17  2  0  0  0  0
 13 18  1  0  0  0  0
 16 19  1  0  0  0  0
 18 20  1  0  0  0  0
 19 21  1  0  0  0  0
 20 22  1  6  0  0  0
  7 10  1  0  0  0  0
 18 16  1  1  0  0  0
 20 21  1  0  0  0  0
M  END
>  <MolRegNo>
397268

>  <m>
=

>  <Value>
29

>  <Unit>
nM

>  <Type>
Ki

>  <pValue>
7.54

>  <Ligand Efficiency>
0.47

>  <Binding Efficiency>
22.05

>  <Surface Efficiency>
7.41

>  <Assay Index>
296570

>  <Assay Category>


>  <Assay Organism>
Homo sapiens

>  <Target ID>
56

>  <Target Name>
Androgen Receptor

>  <Target Organism>
Homo sapiens

>  <Target Description>
Target is a single protein chain

>  <Sequence Accession>
P10275

>  <Reference>
Bioorg Med Chem Lett 17 (16), 4487-4490 (2007)

>  <Pubmed ID>
17574413

>  <DOI>
10.1016/j.bmcl.2007.06.007

$$$$
397267
Actelion Java MolfileCreator 1.0

 22 24  0  0  0  0  0  0  0  0999 V2000
    0.0000   -0.0000   -0.0000 Cl  0  0  0  0  0  0  0  0  0  0  0  0
    0.7835    1.2939   -0.0000 C   0  0  0  0  0  0  0  0  0  0  0  0
    0.0594    2.6354   -0.0000 C   0  0  0  0  0  0  0  0  0  0  0  0
    2.2674    1.2583   -0.0000 C   0  0  0  0  0  0  0  0  0  0  0  0
   -1.4483    2.6947   -0.0000 C   0  0  0  0  0  0  0  0  0  0  0  0
    0.8428    3.9174   -0.0000 C   0  0  0  0  0  0  0  0  0  0  0  0
    3.0390    2.5404   -0.0000 C   0  0  0  0  0  0  0  0  0  0  0  0
    2.9678   -0.0475   -0.0000 C   0  0  0  0  0  0  0  0  0  0  0  0
   -2.9559    2.7541   -0.0000 N   0  0  0  0  0  0  0  0  0  0  0  0
    2.3267    3.8699   -0.0000 C   0  0  0  0  0  0  0  0  0  0  0  0
    4.5229    2.5048   -0.0000 N   0  0  0  0  0  0  0  0  0  0  0  0
    5.3538    1.2702   -0.0000 S   0  0  0  0  0  0  0  0  0  0  0  0
    5.4369    3.7038   -0.0000 C   0  0  0  0  0  0  0  0  0  0  0  0
    6.0542   -0.0356   -0.0000 O   0  0  0  0  0  0  0  0  0  0  0  0
    3.8343    1.2939   -0.0000 O   0  0  0  0  0  0  0  0  0  0  0  0
    6.7902    1.6976   -0.0000 N   0  0  0  0  0  0  0  0  0  0  0  0
    5.0096    5.1639   -0.0000 O   0  0  0  0  0  0  0  0  0  0  0  0
    6.8377    3.2052   -0.0000 C   0  0  0  0  0  0  0  0  0  0  0  0
    8.1910    1.1990   -0.0000 C   0  0  0  0  0  0  0  0  0  0  0  0
    8.2741    3.6325   -0.0000 C   0  0  0  0  0  0  0  0  0  0  0  0
    9.1051    2.3979   -0.0000 C   0  0  0  0  0  0  0  0  0  0  0  0
    8.7727    5.0571   -0.0000 O   0  0  0  0  0  0  0  0  0  0  0  0
  1  2  1  0  0  0  0
  2  3  2  0  0  0  0
  2  4  1  0  0  0  0
  3  5  1  0  0  0  0
  3  6  1  0  0  0  0
  4  7  2  0  0  0  0
  4  8  1  0  0  0  0
  5  9  3  0  0  0  0
  6 10  2  0  0  0  0
  7 11  1  0  0  0  0
 11 12  1  0  0  0  0
 11 13  1  0  0  0  0
 12 14  2  0  0  0  0
 12 15  2  0  0  0  0
 12 16  1  0  0  0  0
 13 17  2  0  0  0  0
 13 18  1  0  0  0  0
 16 19  1  0  0  0  0
 18 20  1  0  0  0  0
 19 21  1  0  0  0  0
 20 22  1  6  0  0  0
  7 10  1  0  0  0  0
 18 16  1  6  0  0  0
 20 21  1  0  0  0  0
M  END
>  <MolRegNo>
397267

>  <m>
=

>  <Value>
0.45

>  <Unit>
nM

>  <Type>
Ki

>  <pValue>
9.35

>  <Ligand Efficiency>
0.58

>  <Binding Efficiency>
27.35

>  <Surface Efficiency>
9.19

>  <Assay Index>
296570

>  <Assay Category>


>  <Assay Organism>
Homo sapiens

>  <Target ID>
56

>  <Target Name>
Androgen Receptor

>  <Target Organism>
Homo sapiens

>  <Target Description>
Target is a single protein chain

>  <Sequence Accession>
P10275

>  <Reference>
Bioorg Med Chem Lett 17 (16), 4487-4490 (2007)

>  <Pubmed ID>
17574413

>  <DOI>
10.1016/j.bmcl.2007.06.007

$$$$
398778
Actelion Java MolfileCreator 1.0

 27 30  0  0  1  0  0  0  0  0999 V2000
    0.0000   -0.0000   -0.0000 S   0  0  0  0  0  0  0  0  0  0  0  0
    0.7338   -1.2901   -0.0000 O   0  0  0  0  0  0  0  0  0  0  0  0
   -0.7575    1.3137   -0.0000 O   0  0  0  0  0  0  0  0  0  0  0  0
    1.2901    0.7575   -0.0000 N   0  0  0  0  0  0  0  0  0  0  0  0
   -1.3137   -0.7220   -0.0000 C   0  0  0  0  0  0  0  0  0  0  0  0
    1.2782    2.2724   -0.0000 C   0  0  0  0  0  0  0  0  0  0  0  0
    2.5683    3.0417   -0.0000 C   0  0  0  0  0  0  0  0  0  0  0  0
   -0.0237    3.0299   -0.0000 C   0  0  0  0  0  0  0  0  0  0  0  0
    3.9885    2.5920   -0.0000 N   0  0  0  0  0  0  0  0  0  0  0  0
    2.5565    4.5567   -0.0000 C   0  0  0  0  0  0  0  0  0  0  0  0
   -0.0355    4.5448   -0.0000 C   0  0  0  0  0  0  0  0  0  0  0  0
    4.8644    3.8229   -0.0000 C   0  0  0  0  0  0  0  0  0  0  0  0
    3.9767    5.0301   -0.0000 C   0  0  0  0  0  0  0  0  0  0  0  0
    1.2427    5.3141   -0.0000 C   0  0  0  0  0  0  0  0  0  0  0  0
    4.4265    6.4622   -0.0000 C   0  0  0  0  0  0  0  0  0  0  0  0
    4.7934    7.9179   -0.0000 C   0  0  0  0  0  0  0  0  0  0  0  0
    5.8467    6.0479   -0.0000 C   0  0  0  0  0  0  0  0  0  0  0  0
    2.9825    6.9001   -0.0000 C   0  0  0  0  0  0  0  0  0  0  0  0
    3.7163    8.9713   -0.0000 C   0  0  0  0  0  0  0  0  0  0  0  0
    6.2255    8.3203   -0.0000 C   0  0  0  0  0  0  0  0  0  0  0  0
    6.8646    4.9827   -0.0000 C   0  0  0  0  0  0  0  0  0  0  0  0
    7.2788    6.4148   -0.0000 C   0  0  0  0  0  0  0  0  0  0  0  0
    2.2606    8.5807   -0.0000 F   0  0  0  0  0  0  0  0  0  0  0  0
    4.0832   10.4270   -0.0000 C   0  0  0  0  0  0  0  0  0  0  0  0
    6.5923    9.7761   -0.0000 C   0  0  0  0  0  0  0  0  0  0  0  0
    5.5272   10.8413   -0.0000 C   0  0  0  0  0  0  0  0  0  0  0  0
    5.8941   12.2970   -0.0000 F   0  0  0  0  0  0  0  0  0  0  0  0
  1  2  2  0  0  0  0
  1  3  2  0  0  0  0
  1  4  1  0  0  0  0
  1  5  1  0  0  0  0
  4  6  1  0  0  0  0
  6  7  2  0  0  0  0
  6  8  1  0  0  0  0
  7  9  1  0  0  0  0
  7 10  1  0  0  0  0
  8 11  2  0  0  0  0
  9 12  1  0  0  0  0
 10 13  1  0  0  0  0
 10 14  2  0  0  0  0
 13 15  1  0  0  0  0
 15 16  1  1  0  0  0
 15 17  1  0  0  0  0
 15 18  1  0  0  0  0
 16 19  2  0  0  0  0
 16 20  1  0  0  0  0
 17 21  1  0  0  0  0
 17 22  1  0  0  0  0
 19 23  1  0  0  0  0
 19 24  1  0  0  0  0
 20 25  2  0  0  0  0
 24 26  2  0  0  0  0
 26 27  1  0  0  0  0
 11 14  1  0  0  0  0
 12 13  2  0  0  0  0
 21 22  1  0  0  0  0
 25 26  1  0  0  0  0
M  END
>  <MolRegNo>
398778

>  <m>
=

>  <Value>
700.1

>  <Unit>
nM

>  <Type>
Ki

>  <pValue>
6.16

>  <Ligand Efficiency>
0.31

>  <Binding Efficiency>
15.76

>  <Surface Efficiency>
9.93

>  <Assay Index>
301242

>  <Assay Category>


>  <Assay Organism>
Homo sapiens

>  <Target ID>
56

>  <Target Name>
Androgen Receptor

>  <Target Organism>
Homo sapiens

>  <Target Description>
Target is a single protein chain

>  <Sequence Accession>
P10275

>  <Reference>
J Med Chem 50 (26), 6443-6445 (2007)

>  <Pubmed ID>
18038968

>  <DOI>
10.1021/jm701186z

$$$$
328201
Actelion Java MolfileCreator 1.0

 29 33  0  0  1  0  0  0  0  0999 V2000
    0.0000   -0.0000   -0.0000 S   0  0  0  0  0  0  0  0  0  0  0  0
   -0.0596   -1.4545   -0.0000 C   0  0  0  0  0  0  0  0  0  0  0  0
   -1.2995    0.7749   -0.0000 C   0  0  0  0  0  0  0  0  0  0  0  0
   -1.3949   -2.1460   -0.0000 O   0  0  0  0  0  0  0  0  0  0  0  0
    1.2041   -2.2533   -0.0000 C   0  0  0  0  0  0  0  0  0  0  0  0
   -1.3114    2.2890   -0.0000 C   0  0  0  0  0  0  0  0  0  0  0  0
   -2.5990    0.0358   -0.0000 C   0  0  0  0  0  0  0  0  0  0  0  0
   -2.6228    3.0401   -0.0000 C   0  0  0  0  0  0  0  0  0  0  0  0
   -0.0358    3.0401   -0.0000 C   0  0  0  0  0  0  0  0  0  0  0  0
   -3.8985    0.7988   -0.0000 C   0  0  0  0  0  0  0  0  0  0  0  0
   -3.9104    2.3129   -0.0000 C   0  0  0  0  0  0  0  0  0  0  0  0
   -2.6348    4.5423   -0.0000 C   0  0  0  0  0  0  0  0  0  0  0  0
   -0.0477    4.5542   -0.0000 C   0  0  0  0  0  0  0  0  0  0  0  0
    1.3830    2.6109   -0.0000 C   0  0  0  0  0  0  0  0  0  0  0  0
   -5.2099    0.0477   -0.0000 C   0  0  0  0  0  0  0  0  0  0  0  0
   -5.2218    3.0640   -0.0000 C   0  0  0  0  0  0  0  0  0  0  0  0
   -3.9462    3.8270   -0.0000 C   0  0  0  0  0  0  0  0  0  0  0  0
   -1.3472    5.2934   -0.0000 C   0  0  0  0  0  0  0  0  0  0  0  0
    1.3830    5.0192   -0.0000 C   0  0  0  0  0  0  0  0  0  0  0  0
   -0.0715    6.0683   -0.0000 C   0  0  0  0  0  0  0  0  0  0  0  0
    2.2413    3.8150   -0.0000 C   0  0  0  0  0  0  0  0  0  0  0  0
   -6.5213    0.8226   -0.0000 C   0  0  0  0  0  0  0  0  0  0  0  0
   -6.5333    2.3367   -0.0000 C   0  0  0  0  0  0  0  0  0  0  0  0
    2.7898    5.4722   -0.0000 O   0  0  0  0  0  0  0  0  0  0  0  0
    0.5007    6.2591   -0.0000 C   0  0  0  0  0  0  0  0  0  0  0  0
   -7.8208    0.0715   -0.0000 O   0  0  0  0  0  0  0  0  0  0  0  0
    2.7898    6.9982   -0.0000 C   0  0  0  0  0  0  0  0  0  0  0  0
    1.3710    7.4751   -0.0000 C   0  0  0  0  0  0  0  0  0  0  0  0
    3.9939    7.8566   -0.0000 O   0  0  0  0  0  0  0  0  0  0  0  0
  1  2  1  0  0  0  0
  3  1  1  6  0  0  0
  2  4  2  0  0  0  0
  2  5  1  0  0  0  0
  6  3  1  6  0  0  0
  3  7  1  0  0  0  0
  6  8  1  0  0  0  0
  6  9  1  0  0  0  0
  7 10  1  0  0  0  0
  8 11  1  0  0  0  0
  8 12  1  1  0  0  0
  9 13  1  0  0  0  0
  9 14  1  1  0  0  0
 10 15  2  0  0  0  0
 11 16  1  0  0  0  0
 11 17  1  1  0  0  0
 12 18  1  0  0  0  0
 13 19  1  0  0  0  0
 13 20  1  1  0  0  0
 14 21  1  0  0  0  0
 15 22  1  0  0  0  0
 16 23  1  0  0  0  0
 19 24  1  1  0  0  0
 19 25  1  0  0  0  0
 22 26  2  0  0  0  0
 24 27  1  0  0  0  0
 25 28  1  0  0  0  0
 27 29  2  0  0  0  0
 10 11  1  0  0  0  0
 13 18  1  0  0  0  0
 19 21  1  0  0  0  0
 22 23  1  0  0  0  0
 27 28  1  0  0  0  0
M  END
>  <MolRegNo>
328201

>  <m>
=

>  <Value>
39.4

>  <Unit>
nM

>  <Type>
Ki

>  <pValue>
7.41

>  <Ligand Efficiency>
0.35

>  <Binding Efficiency>
17.77

>  <Surface Efficiency>
12.25

>  <Assay Index>
301242

>  <Assay Category>


>  <Assay Organism>
Homo sapiens

>  <Target ID>
56

>  <Target Name>
Androgen Receptor

>  <Target Organism>
Homo sapiens

>  <Target Description>
Target is a single protein chain

>  <Sequence Accession>
P10275

>  <Reference>
J Med Chem 50 (26), 6443-6445 (2007)

>  <Pubmed ID>
18038968

>  <DOI>
10.1021/jm701186z

$$$$
398784
Actelion Java MolfileCreator 1.0

 30 35  0  0  1  0  0  0  0  0999 V2000
    0.0000   -0.0000   -0.0000 O   0  0  0  0  0  0  0  0  0  0  0  0
    1.2822    0.7598   -0.0000 C   0  0  0  0  0  0  0  0  0  0  0  0
    2.5644    0.0237   -0.0000 C   0  0  0  0  0  0  0  0  0  0  0  0
    1.2703    2.2794   -0.0000 C   0  0  0  0  0  0  0  0  0  0  0  0
    3.8584    0.7836   -0.0000 C   0  0  0  0  0  0  0  0  0  0  0  0
    2.5525    3.0511   -0.0000 C   0  0  0  0  0  0  0  0  0  0  0  0
    3.8584    2.3032   -0.0000 C   0  0  0  0  0  0  0  0  0  0  0  0
    5.1406    0.0356   -0.0000 C   0  0  0  0  0  0  0  0  0  0  0  0
    5.1525    3.0630   -0.0000 C   0  0  0  0  0  0  0  0  0  0  0  0
    3.8347    3.8110   -0.0000 C   0  0  0  0  0  0  0  0  0  0  0  0
    6.4347    0.7954   -0.0000 C   0  0  0  0  0  0  0  0  0  0  0  0
    6.4347    2.3032   -0.0000 C   0  0  0  0  0  0  0  0  0  0  0  0
    5.1525    4.5826   -0.0000 C   0  0  0  0  0  0  0  0  0  0  0  0
    7.7169    0.0475   -0.0000 C   0  0  0  0  0  0  0  0  0  0  0  0
    7.7288    3.0630   -0.0000 C   0  0  0  0  0  0  0  0  0  0  0  0
    5.1525    6.1023   -0.0000 O   0  0  0  0  0  0  0  0  0  0  0  0
    6.4466    5.3306   -0.0000 C   0  0  0  0  0  0  0  0  0  0  0  0
    7.6931   -1.4365   -0.0000 O   0  0  0  0  0  0  0  0  0  0  0  0
    9.0109    0.8073   -0.0000 O   0  0  0  0  0  0  0  0  0  0  0  0
    7.7288    4.5708   -0.0000 C   0  0  0  0  0  0  0  0  0  0  0  0
    9.1415    2.6000   -0.0000 C   0  0  0  0  0  0  0  0  0  0  0  0
   10.2931    0.0594   -0.0000 C   0  0  0  0  0  0  0  0  0  0  0  0
    9.1534    5.0338   -0.0000 C   0  0  0  0  0  0  0  0  0  0  0  0
    7.3132    6.0310   -0.0000 C   0  0  0  0  0  0  0  0  0  0  0  0
   10.0320    3.8110   -0.0000 C   0  0  0  0  0  0  0  0  0  0  0  0
    8.3224    6.2922   -0.0000 O   0  0  0  0  0  0  0  0  0  0  0  0
   10.5781    5.4374   -0.0000 C   0  0  0  0  0  0  0  0  0  0  0  0
    9.2484    7.4676   -0.0000 C   0  0  0  0  0  0  0  0  0  0  0  0
   10.6374    6.9452   -0.0000 C   0  0  0  0  0  0  0  0  0  0  0  0
    8.8447    8.9278   -0.0000 O   0  0  0  0  0  0  0  0  0  0  0  0
  1  2  2  0  0  0  0
  2  3  1  0  0  0  0
  2  4  1  0  0  0  0
  3  5  2  0  0  0  0
  4  6  1  0  0  0  0
  5  7  1  0  0  0  0
  5  8  1  0  0  0  0
  7  9  1  0  0  0  0
  7 10  1  1  0  0  0
  8 11  1  0  0  0  0
  9 12  1  0  0  0  0
  9 13  1  0  0  0  0
 11 14  1  6  0  0  0
 12 15  1  0  0  0  0
 13 16  1  6  0  0  0
 13 17  1  0  0  0  0
 14 18  2  0  0  0  0
 14 19  1  0  0  0  0
 15 20  1  0  0  0  0
 15 21  1  0  0  0  0
 19 22  1  0  0  0  0
 20 23  1  0  0  0  0
 20 24  1  1  0  0  0
 21 25  1  0  0  0  0
 23 26  1  0  0  0  0
 23 27  1  6  0  0  0
 26 28  1  0  0  0  0
 27 29  1  0  0  0  0
 28 30  2  0  0  0  0
  6  7  1  0  0  0  0
 11 12  1  0  0  0  0
 17 16  1  6  0  0  0
 17 20  1  0  0  0  0
 23 25  1  0  0  0  0
 28 29  1  0  0  0  0
M  END
>  <MolRegNo>
398784

>  <m>
=

>  <Value>
8892

>  <Unit>
nM

>  <Type>
Ki

>  <pValue>
5.05

>  <Ligand Efficiency>
0.23

>  <Binding Efficiency>
12.19

>  <Surface Efficiency>
6.14

>  <Assay Index>
301242

>  <Assay Category>


>  <Assay Organism>
Homo sapiens

>  <Target ID>
56

>  <Target Name>
Androgen Receptor

>  <Target Organism>
Homo sapiens

>  <Target Description>
Target is a single protein chain

>  <Sequence Accession>
P10275

>  <Reference>
J Med Chem 50 (26), 6443-6445 (2007)

>  <Pubmed ID>
18038968

>  <DOI>
10.1021/jm701186z

$$$$
398783
Actelion Java MolfileCreator 1.0

 26 29  0  0  1  0  0  0  0  0999 V2000
    0.0000   -0.0000   -0.0000 S   0  0  0  0  0  0  0  0  0  0  0  0
    0.7340   -1.2904   -0.0000 O   0  0  0  0  0  0  0  0  0  0  0  0
   -0.7576    1.3140   -0.0000 O   0  0  0  0  0  0  0  0  0  0  0  0
    1.2904    0.7576   -0.0000 N   0  0  0  0  0  0  0  0  0  0  0  0
   -1.3140   -0.7221   -0.0000 C   0  0  0  0  0  0  0  0  0  0  0  0
    1.2785    2.2729   -0.0000 C   0  0  0  0  0  0  0  0  0  0  0  0
    2.5689    3.0424   -0.0000 C   0  0  0  0  0  0  0  0  0  0  0  0
   -0.0237    3.0306   -0.0000 C   0  0  0  0  0  0  0  0  0  0  0  0
    3.9895    2.5926   -0.0000 N   0  0  0  0  0  0  0  0  0  0  0  0
    2.5571    4.5577   -0.0000 C   0  0  0  0  0  0  0  0  0  0  0  0
   -0.0355    4.5459   -0.0000 C   0  0  0  0  0  0  0  0  0  0  0  0
    4.8655    3.8238   -0.0000 C   0  0  0  0  0  0  0  0  0  0  0  0
    3.9776    5.0313   -0.0000 C   0  0  0  0  0  0  0  0  0  0  0  0
    1.2430    5.3154   -0.0000 C   0  0  0  0  0  0  0  0  0  0  0  0
    4.4275    6.4637   -0.0000 C   0  0  0  0  0  0  0  0  0  0  0  0
    4.7945    7.9198   -0.0000 C   0  0  0  0  0  0  0  0  0  0  0  0
    5.8481    6.0493   -0.0000 C   0  0  0  0  0  0  0  0  0  0  0  0
    2.9832    6.9017   -0.0000 C   0  0  0  0  0  0  0  0  0  0  0  0
    6.2269    8.3223   -0.0000 C   0  0  0  0  0  0  0  0  0  0  0  0
    3.7172    8.9734   -0.0000 C   0  0  0  0  0  0  0  0  0  0  0  0
    6.8662    4.9839   -0.0000 C   0  0  0  0  0  0  0  0  0  0  0  0
    7.2805    6.4163   -0.0000 C   0  0  0  0  0  0  0  0  0  0  0  0
    6.5939    9.7784   -0.0000 C   0  0  0  0  0  0  0  0  0  0  0  0
    4.0842   10.4295   -0.0000 C   0  0  0  0  0  0  0  0  0  0  0  0
    5.5166   10.8438   -0.0000 C   0  0  0  0  0  0  0  0  0  0  0  0
    5.8836   12.2999   -0.0000 F   0  0  0  0  0  0  0  0  0  0  0  0
  1  2  2  0  0  0  0
  1  3  2  0  0  0  0
  1  4  1  0  0  0  0
  1  5  1  0  0  0  0
  4  6  1  0  0  0  0
  6  7  2  0  0  0  0
  6  8  1  0  0  0  0
  7  9  1  0  0  0  0
  7 10  1  0  0  0  0
  8 11  2  0  0  0  0
  9 12  1  0  0  0  0
 10 13  1  0  0  0  0
 10 14  2  0  0  0  0
 13 15  1  0  0  0  0
 15 16  1  6  0  0  0
 15 17  1  0  0  0  0
 15 18  1  0  0  0  0
 16 19  2  0  0  0  0
 16 20  1  0  0  0  0
 17 21  1  0  0  0  0
 17 22  1  0  0  0  0
 19 23  1  0  0  0  0
 20 24  2  0  0  0  0
 23 25  2  0  0  0  0
 25 26  1  0  0  0  0
 11 14  1  0  0  0  0
 12 13  2  0  0  0  0
 21 22  1  0  0  0  0
 24 25  1  0  0  0  0
M  END
>  <MolRegNo>
398783

>  <m>
=

>  <Value>
590

>  <Unit>
nM

>  <Type>
Ki

>  <pValue>
6.23

>  <Ligand Efficiency>
0.33

>  <Binding Efficiency>
16.72

>  <Surface Efficiency>
10.05

>  <Assay Index>
301242

>  <Assay Category>


>  <Assay Organism>
Homo sapiens

>  <Target ID>
56

>  <Target Name>
Androgen Receptor

>  <Target Organism>
Homo sapiens

>  <Target Description>
Target is a single protein chain

>  <Sequence Accession>
P10275

>  <Reference>
J Med Chem 50 (26), 6443-6445 (2007)

>  <Pubmed ID>
18038968

>  <DOI>
10.1021/jm701186z

$$$$
398782
Actelion Java MolfileCreator 1.0

 26 29  0  0  1  0  0  0  0  0999 V2000
    0.0000   -0.0000   -0.0000 S   0  0  0  0  0  0  0  0  0  0  0  0
    0.7338   -1.2900   -0.0000 O   0  0  0  0  0  0  0  0  0  0  0  0
   -0.7574    1.3137   -0.0000 O   0  0  0  0  0  0  0  0  0  0  0  0
    1.2900    0.7574   -0.0000 N   0  0  0  0  0  0  0  0  0  0  0  0
   -1.3137   -0.7219   -0.0000 C   0  0  0  0  0  0  0  0  0  0  0  0
    1.2782    2.2723   -0.0000 C   0  0  0  0  0  0  0  0  0  0  0  0
    2.5682    3.0416   -0.0000 C   0  0  0  0  0  0  0  0  0  0  0  0
   -0.0237    3.0298   -0.0000 C   0  0  0  0  0  0  0  0  0  0  0  0
    3.9884    2.5919   -0.0000 N   0  0  0  0  0  0  0  0  0  0  0  0
    2.5564    4.5565   -0.0000 C   0  0  0  0  0  0  0  0  0  0  0  0
   -0.0355    4.5447   -0.0000 C   0  0  0  0  0  0  0  0  0  0  0  0
    4.8642    3.8227   -0.0000 C   0  0  0  0  0  0  0  0  0  0  0  0
    3.9766    5.0299   -0.0000 C   0  0  0  0  0  0  0  0  0  0  0  0
    1.2427    5.3140   -0.0000 C   0  0  0  0  0  0  0  0  0  0  0  0
    4.4263    6.4620   -0.0000 C   0  0  0  0  0  0  0  0  0  0  0  0
    4.7932    7.9177   -0.0000 C   0  0  0  0  0  0  0  0  0  0  0  0
    5.8465    6.0477   -0.0000 C   0  0  0  0  0  0  0  0  0  0  0  0
    2.9824    6.8999   -0.0000 C   0  0  0  0  0  0  0  0  0  0  0  0
    6.2253    8.3201   -0.0000 C   0  0  0  0  0  0  0  0  0  0  0  0
    3.7162    8.9710   -0.0000 C   0  0  0  0  0  0  0  0  0  0  0  0
    6.8644    4.9826   -0.0000 C   0  0  0  0  0  0  0  0  0  0  0  0
    7.2786    6.4146   -0.0000 C   0  0  0  0  0  0  0  0  0  0  0  0
    6.5922    9.7758   -0.0000 C   0  0  0  0  0  0  0  0  0  0  0  0
    4.0831   10.4267   -0.0000 C   0  0  0  0  0  0  0  0  0  0  0  0
    5.5152   10.8410   -0.0000 C   0  0  0  0  0  0  0  0  0  0  0  0
    5.8821   12.3085   -0.0000 F   0  0  0  0  0  0  0  0  0  0  0  0
  1  2  2  0  0  0  0
  1  3  2  0  0  0  0
  1  4  1  0  0  0  0
  1  5  1  0  0  0  0
  4  6  1  0  0  0  0
  6  7  2  0  0  0  0
  6  8  1  0  0  0  0
  7  9  1  0  0  0  0
  7 10  1  0  0  0  0
  8 11  2  0  0  0  0
  9 12  1  0  0  0  0
 10 13  1  0  0  0  0
 10 14  2  0  0  0  0
 13 15  1  0  0  0  0
 15 16  1  1  0  0  0
 15 17  1  0  0  0  0
 15 18  1  0  0  0  0
 16 19  2  0  0  0  0
 16 20  1  0  0  0  0
 17 21  1  0  0  0  0
 17 22  1  0  0  0  0
 19 23  1  0  0  0  0
 20 24  2  0  0  0  0
 23 25  2  0  0  0  0
 25 26  1  0  0  0  0
 11 14  1  0  0  0  0
 12 13  2  0  0  0  0
 21 22  1  0  0  0  0
 24 25  1  0  0  0  0
M  END
>  <MolRegNo>
398782

>  <m>
=

>  <Value>
849

>  <Unit>
nM

>  <Type>
Ki

>  <pValue>
6.07

>  <Ligand Efficiency>
0.32

>  <Binding Efficiency>
16.3

>  <Surface Efficiency>
9.8

>  <Assay Index>
301242

>  <Assay Category>


>  <Assay Organism>
Homo sapiens

>  <Target ID>
56

>  <Target Name>
Androgen Receptor

>  <Target Organism>
Homo sapiens

>  <Target Description>
Target is a single protein chain

>  <Sequence Accession>
P10275

>  <Reference>
J Med Chem 50 (26), 6443-6445 (2007)

>  <Pubmed ID>
18038968

>  <DOI>
10.1021/jm701186z

$$$$
436116
Actelion Java MolfileCreator 1.0

 24 27  0  0  1  0  0  0  0  0999 V2000
    0.0000   -0.0000   -0.0000 I   0  0  0  0  0  0  0  0  0  0  0  0
    1.3380    0.7991   -0.0000 C   0  0  0  0  0  0  0  0  0  0  0  0
    1.3194    2.3787   -0.0000 C   0  0  0  0  0  0  0  0  0  0  0  0
    2.6760    0.0372   -0.0000 C   0  0  0  0  0  0  0  0  0  0  0  0
   -0.0557    3.1592   -0.0000 C   0  0  0  0  0  0  0  0  0  0  0  0
    2.6388    3.1963   -0.0000 C   0  0  0  0  0  0  0  0  0  0  0  0
    4.0140    0.8362   -0.0000 C   0  0  0  0  0  0  0  0  0  0  0  0
   -1.4309    3.9582   -0.0000 N   0  0  0  0  0  0  0  0  0  0  0  0
    3.9768    2.4344   -0.0000 C   0  0  0  0  0  0  0  0  0  0  0  0
    5.3520    0.0743   -0.0000 N   0  0  0  0  0  0  0  0  0  0  0  0
    4.9246   -1.1522   -0.0000 C   0  0  0  0  0  0  0  0  0  0  0  0
    6.6528    0.0929   -0.0000 C   0  0  0  0  0  0  0  0  0  0  0  0
    3.6609   -1.5238   -0.0000 O   0  0  0  0  0  0  0  0  0  0  0  0
    5.9652   -1.9141   -0.0000 C   0  0  0  0  0  0  0  0  0  0  0  0
    7.2846    1.2451   -0.0000 O   0  0  0  0  0  0  0  0  0  0  0  0
    7.0245   -1.1336   -0.0000 C   0  0  0  0  0  0  0  0  0  0  0  0
    7.4519   -1.8583   -0.0000 C   0  0  0  0  0  0  0  0  0  0  0  0
    8.3439   -0.8734   -0.0000 C   0  0  0  0  0  0  0  0  0  0  0  0
    8.6784    0.5203   -0.0000 O   0  0  0  0  0  0  0  0  0  0  0  0
    8.3067   -2.9547   -0.0000 C   0  0  0  0  0  0  0  0  0  0  0  0
    6.7271   -3.2335   -0.0000 C   0  0  0  0  0  0  0  0  0  0  0  0
    9.2359   -2.1742   -0.0000 C   0  0  0  0  0  0  0  0  0  0  0  0
    9.6633   -0.0743   -0.0000 C   0  0  0  0  0  0  0  0  0  0  0  0
    9.6261   -3.7166   -0.0000 O   0  0  0  0  0  0  0  0  0  0  0  0
  1  2  1  0  0  0  0
  2  3  2  0  0  0  0
  2  4  1  0  0  0  0
  3  5  1  0  0  0  0
  3  6  1  0  0  0  0
  4  7  2  0  0  0  0
  5  8  3  0  0  0  0
  6  9  2  0  0  0  0
  7 10  1  0  0  0  0
 10 11  1  0  0  0  0
 10 12  1  0  0  0  0
 11 13  2  0  0  0  0
 14 11  1  1  0  0  0
 12 15  2  0  0  0  0
 16 12  1  1  0  0  0
 14 17  1  0  0  0  0
 16 18  1  0  0  0  0
 17 19  1  0  0  0  0
 17 20  1  0  0  0  0
 17 21  1  0  0  0  0
 18 22  1  0  0  0  0
 18 23  1  0  0  0  0
 20 24  1  1  0  0  0
  7  9  1  0  0  0  0
 14 16  1  0  0  0  0
 18 19  1  0  0  0  0
 20 22  1  0  0  0  0
M  END
>  <MolRegNo>
436116

>  <m>
=

>  <Value>
2.41

>  <Unit>
nM

>  <Type>
Ki

>  <pValue>
8.62

>  <Ligand Efficiency>
0.49

>  <Binding Efficiency>
19.67

>  <Surface Efficiency>
9.51

>  <Assay Index>
313568

>  <Assay Category>


>  <Assay Organism>
Homo sapiens

>  <Target ID>
56

>  <Target Name>
Androgen Receptor

>  <Target Organism>
Homo sapiens

>  <Target Description>
Target is a single protein chain

>  <Sequence Accession>
P10275

>  <Reference>
Bioorg Med Chem Lett 18 (6), 1910-1915 (2008)

>  <Pubmed ID>
18291644

>  <DOI>
10.1016/j.bmcl.2008.02.006

$$$$
436119
Actelion Java MolfileCreator 1.0

 24 27  0  0  1  0  0  0  0  0999 V2000
    0.0000   -0.0000   -0.0000 I   0  0  0  0  0  0  0  0  0  0  0  0
    1.3422    0.7881   -0.0000 C   0  0  0  0  0  0  0  0  0  0  0  0
    1.3299    2.3643   -0.0000 C   0  0  0  0  0  0  0  0  0  0  0  0
    2.6844    0.0246   -0.0000 C   0  0  0  0  0  0  0  0  0  0  0  0
   -0.0369    3.1400   -0.0000 C   0  0  0  0  0  0  0  0  0  0  0  0
    2.6475    3.1647   -0.0000 C   0  0  0  0  0  0  0  0  0  0  0  0
    4.0266    0.8127   -0.0000 C   0  0  0  0  0  0  0  0  0  0  0  0
   -1.4038    3.9281   -0.0000 N   0  0  0  0  0  0  0  0  0  0  0  0
    3.9897    2.3889   -0.0000 C   0  0  0  0  0  0  0  0  0  0  0  0
    5.3688    0.0493   -0.0000 N   0  0  0  0  0  0  0  0  0  0  0  0
    6.6618    0.0616   -0.0000 C   0  0  0  0  0  0  0  0  0  0  0  0
    4.9502   -1.1821   -0.0000 C   0  0  0  0  0  0  0  0  0  0  0  0
    7.3021    1.2068   -0.0000 O   0  0  0  0  0  0  0  0  0  0  0  0
    7.0435   -1.1698   -0.0000 C   0  0  0  0  0  0  0  0  0  0  0  0
    3.6941   -1.5639   -0.0000 O   0  0  0  0  0  0  0  0  0  0  0  0
    5.9968   -1.9456   -0.0000 C   0  0  0  0  0  0  0  0  0  0  0  0
    8.3734   -0.9235   -0.0000 C   0  0  0  0  0  0  0  0  0  0  0  0
    7.4868   -1.8963   -0.0000 C   0  0  0  0  0  0  0  0  0  0  0  0
    8.7059    0.4802   -0.0000 O   0  0  0  0  0  0  0  0  0  0  0  0
    9.2600   -2.2288   -0.0000 C   0  0  0  0  0  0  0  0  0  0  0  0
    9.7033   -0.1231   -0.0000 C   0  0  0  0  0  0  0  0  0  0  0  0
    8.3488   -3.0046   -0.0000 C   0  0  0  0  0  0  0  0  0  0  0  0
    6.7603   -3.2755   -0.0000 C   0  0  0  0  0  0  0  0  0  0  0  0
   10.5899   -1.4284   -0.0000 O   0  0  0  0  0  0  0  0  0  0  0  0
  1  2  1  0  0  0  0
  2  3  2  0  0  0  0
  2  4  1  0  0  0  0
  3  5  1  0  0  0  0
  3  6  1  0  0  0  0
  4  7  2  0  0  0  0
  5  8  3  0  0  0  0
  6  9  2  0  0  0  0
  7 10  1  0  0  0  0
 10 11  1  0  0  0  0
 10 12  1  0  0  0  0
 11 13  2  0  0  0  0
 14 11  1  1  0  0  0
 12 15  2  0  0  0  0
 16 12  1  1  0  0  0
 14 17  1  0  0  0  0
 16 18  1  0  0  0  0
 17 19  1  0  0  0  0
 17 20  1  0  0  0  0
 17 21  1  0  0  0  0
 18 22  1  0  0  0  0
 18 23  1  0  0  0  0
 20 24  1  1  0  0  0
  7  9  1  0  0  0  0
 14 16  1  0  0  0  0
 18 19  1  0  0  0  0
 20 22  1  0  0  0  0
M  END
>  <MolRegNo>
436119

>  <m>
=

>  <Value>
7.18

>  <Unit>
nM

>  <Type>
Ki

>  <pValue>
8.14

>  <Ligand Efficiency>
0.46

>  <Binding Efficiency>
18.58

>  <Surface Efficiency>
8.99

>  <Assay Index>
313568

>  <Assay Category>


>  <Assay Organism>
Homo sapiens

>  <Target ID>
56

>  <Target Name>
Androgen Receptor

>  <Target Organism>
Homo sapiens

>  <Target Description>
Target is a single protein chain

>  <Sequence Accession>
P10275

>  <Reference>
Bioorg Med Chem Lett 18 (6), 1910-1915 (2008)

>  <Pubmed ID>
18291644

>  <DOI>
10.1016/j.bmcl.2008.02.006

$$$$
436161
Actelion Java MolfileCreator 1.0

 28 32  0  0  1  0  0  0  0  0999 V2000
    0.0000   -0.0000   -0.0000 Br  0  0  0  0  0  0  0  0  0  0  0  0
    1.3295   -0.7571   -0.0000 C   0  0  0  0  0  0  0  0  0  0  0  0
    2.6590    0.0369   -0.0000 C   0  0  0  0  0  0  0  0  0  0  0  0
    1.3111   -2.2897   -0.0000 C   0  0  0  0  0  0  0  0  0  0  0  0
    2.6406    1.6065   -0.0000 C   0  0  0  0  0  0  0  0  0  0  0  0
    3.9886   -0.7202   -0.0000 C   0  0  0  0  0  0  0  0  0  0  0  0
    2.6406   -3.0468   -0.0000 C   0  0  0  0  0  0  0  0  0  0  0  0
    1.2741    2.4005   -0.0000 N   0  0  0  0  0  0  0  0  0  0  0  0
    3.9516    2.4190   -0.0000 C   0  0  0  0  0  0  0  0  0  0  0  0
    5.3181    0.0739   -0.0000 C   0  0  0  0  0  0  0  0  0  0  0  0
    3.9701   -2.2528   -0.0000 C   0  0  0  0  0  0  0  0  0  0  0  0
   -0.0923    1.6434   -0.0000 O   0  0  0  0  0  0  0  0  0  0  0  0
    1.2557    3.9701   -0.0000 O   0  0  0  0  0  0  0  0  0  0  0  0
    5.2812    1.6619   -0.0000 C   0  0  0  0  0  0  0  0  0  0  0  0
    6.6476   -0.6832   -0.0000 N   0  0  0  0  0  0  0  0  0  0  0  0
    6.2229   -1.9020   -0.0000 C   0  0  0  0  0  0  0  0  0  0  0  0
    7.9402   -0.6648   -0.0000 C   0  0  0  0  0  0  0  0  0  0  0  0
    4.9672   -2.2897   -0.0000 O   0  0  0  0  0  0  0  0  0  0  0  0
    7.2570   -2.6590   -0.0000 C   0  0  0  0  0  0  0  0  0  0  0  0
    8.5680    0.4801   -0.0000 O   0  0  0  0  0  0  0  0  0  0  0  0
    8.3280   -1.8835   -0.0000 C   0  0  0  0  0  0  0  0  0  0  0  0
    8.7342   -2.6036   -0.0000 C   0  0  0  0  0  0  0  0  0  0  0  0
    9.6390   -1.6250   -0.0000 C   0  0  0  0  0  0  0  0  0  0  0  0
    9.9529   -0.2401   -0.0000 O   0  0  0  0  0  0  0  0  0  0  0  0
    9.5836   -3.6931   -0.0000 C   0  0  0  0  0  0  0  0  0  0  0  0
    8.0141   -3.9701   -0.0000 C   0  0  0  0  0  0  0  0  0  0  0  0
   10.5254   -2.9176   -0.0000 C   0  0  0  0  0  0  0  0  0  0  0  0
   10.9501   -0.8310   -0.0000 C   0  0  0  0  0  0  0  0  0  0  0  0
  1  2  1  0  0  0  0
  2  3  1  0  0  0  0
  2  4  2  0  0  0  0
  3  5  2  0  0  0  0
  3  6  1  0  0  0  0
  4  7  1  0  0  0  0
  5  8  1  0  0  0  0
  5  9  1  0  0  0  0
  6 10  2  0  0  0  0
  6 11  1  0  0  0  0
  8 12  2  0  0  0  0
  8 13  1  0  0  0  0
  9 14  2  0  0  0  0
 10 15  1  0  0  0  0
 15 16  1  0  0  0  0
 15 17  1  0  0  0  0
 16 18  2  0  0  0  0
 19 16  1  1  0  0  0
 17 20  2  0  0  0  0
 21 17  1  1  0  0  0
 19 22  1  0  0  0  0
 21 23  1  0  0  0  0
 22 24  1  0  0  0  0
 22 25  1  0  0  0  0
 22 26  1  0  0  0  0
 23 27  1  0  0  0  0
 23 28  1  0  0  0  0
  7 11  2  0  0  0  0
 10 14  1  0  0  0  0
 19 21  1  0  0  0  0
 23 24  1  0  0  0  0
 25 27  1  0  0  0  0
M  CHG  2   8   1  13  -1
M  END
>  <MolRegNo>
436161

>  <m>
=

>  <Value>
17

>  <Unit>
nM

>  <Type>
Ki

>  <pValue>
7.77

>  <Ligand Efficiency>
0.38

>  <Binding Efficiency>
17.45

>  <Surface Efficiency>
8.66

>  <Assay Index>
313568

>  <Assay Category>


>  <Assay Organism>
Homo sapiens

>  <Target ID>
56

>  <Target Name>
Androgen Receptor

>  <Target Organism>
Homo sapiens

>  <Target Description>
Target is a single protein chain

>  <Sequence Accession>
P10275

>  <Reference>
Bioorg Med Chem Lett 18 (6), 1910-1915 (2008)

>  <Pubmed ID>
18291644

>  <DOI>
10.1016/j.bmcl.2008.02.006

$$$$
435485
Actelion Java MolfileCreator 1.0

 25 29  0  0  1  0  0  0  0  0999 V2000
    0.0000   -0.0000   -0.0000 O   0  0  0  0  0  0  0  0  0  0  0  0
    1.2154    0.4236   -0.0000 C   0  0  0  0  0  0  0  0  0  0  0  0
    1.6022    1.6758   -0.0000 N   0  0  0  0  0  0  0  0  0  0  0  0
    2.2467   -0.3315   -0.0000 C   0  0  0  0  0  0  0  0  0  0  0  0
    0.2394    2.4677   -0.0000 C   0  0  0  0  0  0  0  0  0  0  0  0
    2.8913    1.6942   -0.0000 C   0  0  0  0  0  0  0  0  0  0  0  0
    3.7200   -0.2762   -0.0000 C   0  0  0  0  0  0  0  0  0  0  0  0
    3.2780    0.4420   -0.0000 C   0  0  0  0  0  0  0  0  0  0  0  0
    0.2026    4.0330   -0.0000 C   0  0  0  0  0  0  0  0  0  0  0  0
   -1.1234    1.7127   -0.0000 C   0  0  0  0  0  0  0  0  0  0  0  0
    3.5174    2.8360   -0.0000 O   0  0  0  0  0  0  0  0  0  0  0  0
    4.9354    2.0810   -0.0000 O   0  0  0  0  0  0  0  0  0  0  0  0
    4.5671   -1.3628   -0.0000 C   0  0  0  0  0  0  0  0  0  0  0  0
    3.0018   -1.6390   -0.0000 C   0  0  0  0  0  0  0  0  0  0  0  0
    4.5855    0.6998   -0.0000 C   0  0  0  0  0  0  0  0  0  0  0  0
   -1.1602    4.8249   -0.0000 N   0  0  0  0  0  0  0  0  0  0  0  0
    1.3443    5.0827   -0.0000 C   0  0  0  0  0  0  0  0  0  0  0  0
   -2.4861    2.5045   -0.0000 C   0  0  0  0  0  0  0  0  0  0  0  0
    5.4695   -0.5893   -0.0000 C   0  0  0  0  0  0  0  0  0  0  0  0
    5.8930    1.4917   -0.0000 C   0  0  0  0  0  0  0  0  0  0  0  0
   -0.8471    6.3718   -0.0000 N   0  0  0  0  0  0  0  0  0  0  0  0
   -2.5045    4.0515   -0.0000 C   0  0  0  0  0  0  0  0  0  0  0  0
    0.6998    6.5192   -0.0000 C   0  0  0  0  0  0  0  0  0  0  0  0
   -3.8673    4.8249   -0.0000 C   0  0  0  0  0  0  0  0  0  0  0  0
   -5.2301    5.6168   -0.0000 N   0  0  0  0  0  0  0  0  0  0  0  0
  1  2  2  0  0  0  0
  2  3  1  0  0  0  0
  4  2  1  1  0  0  0
  3  5  1  0  0  0  0
  3  6  1  0  0  0  0
  4  7  1  0  0  0  0
  4  8  1  0  0  0  0
  5  9  1  0  0  0  0
  5 10  2  0  0  0  0
  6 11  2  0  0  0  0
  7 12  1  0  0  0  0
  7 13  1  0  0  0  0
  7 14  1  0  0  0  0
  8 15  1  0  0  0  0
  9 16  1  0  0  0  0
  9 17  2  0  0  0  0
 10 18  1  0  0  0  0
 13 19  1  0  0  0  0
 15 20  1  0  0  0  0
 16 21  1  0  0  0  0
 16 22  1  0  0  0  0
 17 23  1  0  0  0  0
 22 24  1  0  0  0  0
 24 25  3  0  0  0  0
  8  6  1  1  0  0  0
 12 15  1  0  0  0  0
 15 19  1  0  0  0  0
 18 22  2  0  0  0  0
 21 23  2  0  0  0  0
M  END
>  <MolRegNo>
435485

>  <m>
=

>  <Value>
18

>  <Unit>
nM

>  <Type>
Ki

>  <pValue>
7.75

>  <Ligand Efficiency>
0.42

>  <Binding Efficiency>
23.03

>  <Surface Efficiency>
8.83

>  <Assay Index>
313568

>  <Assay Category>


>  <Assay Organism>
Homo sapiens

>  <Target ID>
56

>  <Target Name>
Androgen Receptor

>  <Target Organism>
Homo sapiens

>  <Target Description>
Target is a single protein chain

>  <Sequence Accession>
P10275

>  <Reference>
Bioorg Med Chem Lett 18 (6), 1910-1915 (2008)

>  <Pubmed ID>
18291644

>  <DOI>
10.1016/j.bmcl.2008.02.006

$$$$
435529
Actelion Java MolfileCreator 1.0

 25 29  0  0  1  0  0  0  0  0999 V2000
    0.0000   -0.0000   -0.0000 S   0  0  0  0  0  0  0  0  0  0  0  0
    0.6111   -1.4073   -0.0000 N   0  0  0  0  0  0  0  0  0  0  0  0
   -1.5740   -0.1481   -0.0000 N   0  0  0  0  0  0  0  0  0  0  0  0
   -0.5740   -2.4258   -0.0000 C   0  0  0  0  0  0  0  0  0  0  0  0
   -1.9258   -1.6666   -0.0000 C   0  0  0  0  0  0  0  0  0  0  0  0
   -0.5740   -3.9627   -0.0000 C   0  0  0  0  0  0  0  0  0  0  0  0
   -3.2776   -2.4443   -0.0000 C   0  0  0  0  0  0  0  0  0  0  0  0
    0.7592   -4.7220   -0.0000 N   0  0  0  0  0  0  0  0  0  0  0  0
   -1.9443   -4.7220   -0.0000 C   0  0  0  0  0  0  0  0  0  0  0  0
   -4.6479   -1.6666   -0.0000 C   0  0  0  0  0  0  0  0  0  0  0  0
   -3.2961   -3.9813   -0.0000 C   0  0  0  0  0  0  0  0  0  0  0  0
    0.3333   -5.9441   -0.0000 C   0  0  0  0  0  0  0  0  0  0  0  0
    2.0554   -4.7034   -0.0000 C   0  0  0  0  0  0  0  0  0  0  0  0
   -6.0182   -0.8703   -0.0000 N   0  0  0  0  0  0  0  0  0  0  0  0
   -0.9259   -6.3330   -0.0000 O   0  0  0  0  0  0  0  0  0  0  0  0
    1.3703   -6.7033   -0.0000 C   0  0  0  0  0  0  0  0  0  0  0  0
    2.6850   -3.5554   -0.0000 O   0  0  0  0  0  0  0  0  0  0  0  0
    2.4258   -5.9256   -0.0000 C   0  0  0  0  0  0  0  0  0  0  0  0
    2.8517   -6.6478   -0.0000 C   0  0  0  0  0  0  0  0  0  0  0  0
    3.7405   -5.6664   -0.0000 C   0  0  0  0  0  0  0  0  0  0  0  0
    4.0739   -4.2775   -0.0000 O   0  0  0  0  0  0  0  0  0  0  0  0
    3.7035   -7.7403   -0.0000 C   0  0  0  0  0  0  0  0  0  0  0  0
    2.1295   -8.0181   -0.0000 C   0  0  0  0  0  0  0  0  0  0  0  0
    4.6294   -6.9626   -0.0000 C   0  0  0  0  0  0  0  0  0  0  0  0
    5.0738   -4.8701   -0.0000 C   0  0  0  0  0  0  0  0  0  0  0  0
  1  2  1  0  0  0  0
  1  3  1  0  0  0  0
  2  4  2  0  0  0  0
  3  5  2  0  0  0  0
  4  6  1  0  0  0  0
  5  7  1  0  0  0  0
  6  8  1  0  0  0  0
  6  9  2  0  0  0  0
  7 10  1  0  0  0  0
  7 11  2  0  0  0  0
  8 12  1  0  0  0  0
  8 13  1  0  0  0  0
 10 14  3  0  0  0  0
 12 15  2  0  0  0  0
 16 12  1  1  0  0  0
 13 17  2  0  0  0  0
 18 13  1  1  0  0  0
 16 19  1  0  0  0  0
 18 20  1  0  0  0  0
 19 21  1  0  0  0  0
 19 22  1  0  0  0  0
 19 23  1  0  0  0  0
 20 24  1  0  0  0  0
 20 25  1  0  0  0  0
  4  5  1  0  0  0  0
  9 11  1  0  0  0  0
 16 18  1  0  0  0  0
 20 21  1  0  0  0  0
 22 24  1  0  0  0  0
M  END
>  <MolRegNo>
435529

>  <m>
=

>  <Value>
3

>  <Unit>
nM

>  <Type>
Ki

>  <pValue>
8.52

>  <Ligand Efficiency>
0.47

>  <Binding Efficiency>
24.05

>  <Surface Efficiency>
8.86

>  <Assay Index>
313568

>  <Assay Category>


>  <Assay Organism>
Homo sapiens

>  <Target ID>
56

>  <Target Name>
Androgen Receptor

>  <Target Organism>
Homo sapiens

>  <Target Description>
Target is a single protein chain

>  <Sequence Accession>
P10275

>  <Reference>
Bioorg Med Chem Lett 18 (6), 1910-1915 (2008)

>  <Pubmed ID>
18291644

>  <DOI>
10.1016/j.bmcl.2008.02.006

$$$$
435528
Actelion Java MolfileCreator 1.0

 24 28  0  0  1  0  0  0  0  0999 V2000
    0.0000   -0.0000   -0.0000 O   0  0  0  0  0  0  0  0  0  0  0  0
    1.0027    0.3528   -0.0000 C   0  0  0  0  0  0  0  0  0  0  0  0
    1.3927    1.6155   -0.0000 N   0  0  0  0  0  0  0  0  0  0  0  0
    2.0426   -0.4085   -0.0000 C   0  0  0  0  0  0  0  0  0  0  0  0
    0.0186    2.4140   -0.0000 C   0  0  0  0  0  0  0  0  0  0  0  0
    2.6925    1.6341   -0.0000 C   0  0  0  0  0  0  0  0  0  0  0  0
    3.5282   -0.3528   -0.0000 C   0  0  0  0  0  0  0  0  0  0  0  0
    3.0825    0.3714   -0.0000 C   0  0  0  0  0  0  0  0  0  0  0  0
   -0.0186    3.9924   -0.0000 N   0  0  0  0  0  0  0  0  0  0  0  0
   -1.3556    1.6527   -0.0000 C   0  0  0  0  0  0  0  0  0  0  0  0
    3.3239    2.7854   -0.0000 O   0  0  0  0  0  0  0  0  0  0  0  0
    4.7537    2.0241   -0.0000 O   0  0  0  0  0  0  0  0  0  0  0  0
    4.3823   -1.4484   -0.0000 C   0  0  0  0  0  0  0  0  0  0  0  0
    2.8040   -1.7269   -0.0000 C   0  0  0  0  0  0  0  0  0  0  0  0
    4.4009    0.6314   -0.0000 C   0  0  0  0  0  0  0  0  0  0  0  0
   -1.3927    4.7909   -0.0000 C   0  0  0  0  0  0  0  0  0  0  0  0
    1.1327    5.0508   -0.0000 C   0  0  0  0  0  0  0  0  0  0  0  0
   -1.3741    0.1114   -0.0000 N   0  0  0  0  0  0  0  0  0  0  0  0
   -2.7297    2.4511   -0.0000 C   0  0  0  0  0  0  0  0  0  0  0  0
    5.2922   -0.6685   -0.0000 C   0  0  0  0  0  0  0  0  0  0  0  0
    5.7193    1.4298   -0.0000 C   0  0  0  0  0  0  0  0  0  0  0  0
   -1.0770    6.3507   -0.0000 N   0  0  0  0  0  0  0  0  0  0  0  0
   -2.7483    4.0110   -0.0000 C   0  0  0  0  0  0  0  0  0  0  0  0
    0.4828    6.4992   -0.0000 C   0  0  0  0  0  0  0  0  0  0  0  0
  1  2  2  0  0  0  0
  2  3  1  0  0  0  0
  4  2  1  1  0  0  0
  3  5  1  0  0  0  0
  3  6  1  0  0  0  0
  4  7  1  0  0  0  0
  4  8  1  0  0  0  0
  5  9  1  0  0  0  0
  5 10  2  0  0  0  0
  6 11  2  0  0  0  0
  7 12  1  0  0  0  0
  7 13  1  0  0  0  0
  7 14  1  0  0  0  0
  8 15  1  0  0  0  0
  9 16  1  0  0  0  0
  9 17  1  0  0  0  0
 10 18  1  0  0  0  0
 10 19  1  0  0  0  0
 13 20  1  0  0  0  0
 15 21  1  0  0  0  0
 16 22  2  0  0  0  0
 16 23  1  0  0  0  0
 17 24  2  0  0  0  0
  8  6  1  1  0  0  0
 12 15  1  0  0  0  0
 15 20  1  0  0  0  0
 19 23  2  0  0  0  0
 22 24  1  0  0  0  0
M  END
>  <MolRegNo>
435528

>  <m>
=

>  <Value>
27

>  <Unit>
nM

>  <Type>
Ki

>  <pValue>
7.57

>  <Ligand Efficiency>
0.43

>  <Binding Efficiency>
23.19

>  <Surface Efficiency>
8.42

>  <Assay Index>
313568

>  <Assay Category>


>  <Assay Organism>
Homo sapiens

>  <Target ID>
56

>  <Target Name>
Androgen Receptor

>  <Target Organism>
Homo sapiens

>  <Target Description>
Target is a single protein chain

>  <Sequence Accession>
P10275

>  <Reference>
Bioorg Med Chem Lett 18 (6), 1910-1915 (2008)

>  <Pubmed ID>
18291644

>  <DOI>
10.1016/j.bmcl.2008.02.006

$$$$
435531
Actelion Java MolfileCreator 1.0

 24 28  0  0  1  0  0  0  0  0999 V2000
    0.0000   -0.0000   -0.0000 S   0  0  0  0  0  0  0  0  0  0  0  0
   -1.1957   -1.0276   -0.0000 C   0  0  0  0  0  0  0  0  0  0  0  0
   -0.6539    1.4573   -0.0000 C   0  0  0  0  0  0  0  0  0  0  0  0
   -1.1957   -2.5783   -0.0000 C   0  0  0  0  0  0  0  0  0  0  0  0
   -2.5783   -0.2242   -0.0000 C   0  0  0  0  0  0  0  0  0  0  0  0
   -2.2420    1.3078   -0.0000 N   0  0  0  0  0  0  0  0  0  0  0  0
    0.1495   -3.3443   -0.0000 N   0  0  0  0  0  0  0  0  0  0  0  0
   -2.5783   -3.3443   -0.0000 C   0  0  0  0  0  0  0  0  0  0  0  0
   -3.9422   -1.0089   -0.0000 C   0  0  0  0  0  0  0  0  0  0  0  0
   -0.2803   -4.5774   -0.0000 C   0  0  0  0  0  0  0  0  0  0  0  0
    1.4573   -3.3257   -0.0000 C   0  0  0  0  0  0  0  0  0  0  0  0
   -2.5970   -4.8951   -0.0000 N   0  0  0  0  0  0  0  0  0  0  0  0
   -3.9609   -2.5409   -0.0000 C   0  0  0  0  0  0  0  0  0  0  0  0
   -1.1957   -4.9511   -0.0000 O   0  0  0  0  0  0  0  0  0  0  0  0
    0.7660   -5.3435   -0.0000 C   0  0  0  0  0  0  0  0  0  0  0  0
    2.0925   -2.1673   -0.0000 O   0  0  0  0  0  0  0  0  0  0  0  0
    1.8310   -4.5588   -0.0000 C   0  0  0  0  0  0  0  0  0  0  0  0
    2.2607   -5.2874   -0.0000 C   0  0  0  0  0  0  0  0  0  0  0  0
    3.1575   -4.2972   -0.0000 C   0  0  0  0  0  0  0  0  0  0  0  0
    3.4938   -2.8959   -0.0000 O   0  0  0  0  0  0  0  0  0  0  0  0
    3.1201   -6.3897   -0.0000 C   0  0  0  0  0  0  0  0  0  0  0  0
    1.5320   -6.6700   -0.0000 C   0  0  0  0  0  0  0  0  0  0  0  0
    4.0543   -5.6050   -0.0000 C   0  0  0  0  0  0  0  0  0  0  0  0
    4.4840   -3.4938   -0.0000 C   0  0  0  0  0  0  0  0  0  0  0  0
  1  2  1  0  0  0  0
  1  3  1  0  0  0  0
  2  4  2  0  0  0  0
  2  5  1  0  0  0  0
  3  6  2  0  0  0  0
  4  7  1  0  0  0  0
  4  8  1  0  0  0  0
  5  9  2  0  0  0  0
  7 10  1  0  0  0  0
  7 11  1  0  0  0  0
  8 12  1  0  0  0  0
  8 13  2  0  0  0  0
 10 14  2  0  0  0  0
 15 10  1  1  0  0  0
 11 16  2  0  0  0  0
 17 11  1  1  0  0  0
 15 18  1  0  0  0  0
 17 19  1  0  0  0  0
 18 20  1  0  0  0  0
 18 21  1  0  0  0  0
 18 22  1  0  0  0  0
 19 23  1  0  0  0  0
 19 24  1  0  0  0  0
  5  6  1  0  0  0  0
  9 13  1  0  0  0  0
 15 17  1  0  0  0  0
 19 20  1  0  0  0  0
 21 23  1  0  0  0  0
M  END
>  <MolRegNo>
435531

>  <m>
=

>  <Value>
17

>  <Unit>
nM

>  <Type>
Ki

>  <pValue>
7.77

>  <Ligand Efficiency>
0.44

>  <Binding Efficiency>
22.62

>  <Surface Efficiency>
9.09

>  <Assay Index>
313568

>  <Assay Category>


>  <Assay Organism>
Homo sapiens

>  <Target ID>
56

>  <Target Name>
Androgen Receptor

>  <Target Organism>
Homo sapiens

>  <Target Description>
Target is a single protein chain

>  <Sequence Accession>
P10275

>  <Reference>
Bioorg Med Chem Lett 18 (6), 1910-1915 (2008)

>  <Pubmed ID>
18291644

>  <DOI>
10.1016/j.bmcl.2008.02.006

$$$$
435530
Actelion Java MolfileCreator 1.0

 27 31  0  0  1  0  0  0  0  0999 V2000
    0.0000   -0.0000   -0.0000 O   0  0  0  0  0  0  0  0  0  0  0  0
    1.2123    0.4041   -0.0000 C   0  0  0  0  0  0  0  0  0  0  0  0
    1.5980    1.6531   -0.0000 N   0  0  0  0  0  0  0  0  0  0  0  0
    2.2409   -0.3490   -0.0000 C   0  0  0  0  0  0  0  0  0  0  0  0
    0.2388    2.4430   -0.0000 C   0  0  0  0  0  0  0  0  0  0  0  0
    2.8838    1.6715   -0.0000 C   0  0  0  0  0  0  0  0  0  0  0  0
    3.7104   -0.2939   -0.0000 C   0  0  0  0  0  0  0  0  0  0  0  0
    3.2695    0.4225   -0.0000 C   0  0  0  0  0  0  0  0  0  0  0  0
    0.2020    4.0042   -0.0000 C   0  0  0  0  0  0  0  0  0  0  0  0
   -1.1205    1.6899   -0.0000 C   0  0  0  0  0  0  0  0  0  0  0  0
    3.5083    2.8103   -0.0000 O   0  0  0  0  0  0  0  0  0  0  0  0
    4.9226    2.0572   -0.0000 O   0  0  0  0  0  0  0  0  0  0  0  0
    4.5553   -1.3776   -0.0000 C   0  0  0  0  0  0  0  0  0  0  0  0
    2.9940   -1.6531   -0.0000 C   0  0  0  0  0  0  0  0  0  0  0  0
    4.5737    0.6796   -0.0000 C   0  0  0  0  0  0  0  0  0  0  0  0
   -1.1572    4.7941   -0.0000 C   0  0  0  0  0  0  0  0  0  0  0  0
   -2.4797    2.4797   -0.0000 C   0  0  0  0  0  0  0  0  0  0  0  0
    5.4553   -0.6061   -0.0000 C   0  0  0  0  0  0  0  0  0  0  0  0
    5.8778    1.4694   -0.0000 C   0  0  0  0  0  0  0  0  0  0  0  0
   -1.1756    6.3554   -0.0000 O   0  0  0  0  0  0  0  0  0  0  0  0
   -2.5164    4.0410   -0.0000 C   0  0  0  0  0  0  0  0  0  0  0  0
    0.1469    7.1452   -0.0000 C   0  0  0  0  0  0  0  0  0  0  0  0
   -3.8757    4.8308   -0.0000 C   0  0  0  0  0  0  0  0  0  0  0  0
   -4.0593    6.3921   -0.0000 O   0  0  0  0  0  0  0  0  0  0  0  0
   -5.3084    4.2247   -0.0000 C   0  0  0  0  0  0  0  0  0  0  0  0
   -5.5839    6.7227   -0.0000 C   0  0  0  0  0  0  0  0  0  0  0  0
   -6.3554    5.3819   -0.0000 N   0  0  0  0  0  0  0  0  0  0  0  0
  1  2  2  0  0  0  0
  2  3  1  0  0  0  0
  4  2  1  1  0  0  0
  3  5  1  0  0  0  0
  3  6  1  0  0  0  0
  4  7  1  0  0  0  0
  4  8  1  0  0  0  0
  5  9  2  0  0  0  0
  5 10  1  0  0  0  0
  6 11  2  0  0  0  0
  7 12  1  0  0  0  0
  7 13  1  0  0  0  0
  7 14  1  0  0  0  0
  8 15  1  0  0  0  0
  9 16  1  0  0  0  0
 10 17  2  0  0  0  0
 13 18  1  0  0  0  0
 15 19  1  0  0  0  0
 16 20  1  0  0  0  0
 16 21  2  0  0  0  0
 20 22  1  0  0  0  0
 21 23  1  0  0  0  0
 23 24  1  0  0  0  0
 23 25  2  0  0  0  0
 24 26  1  0  0  0  0
 25 27  1  0  0  0  0
  8  6  1  1  0  0  0
 12 15  1  0  0  0  0
 15 18  1  0  0  0  0
 17 21  1  0  0  0  0
 26 27  2  0  0  0  0
M  END
>  <MolRegNo>
435530

>  <m>
=

>  <Value>
12

>  <Unit>
nM

>  <Type>
Ki

>  <pValue>
7.92

>  <Ligand Efficiency>
0.4

>  <Binding Efficiency>
21.5

>  <Surface Efficiency>
9.67

>  <Assay Index>
313568

>  <Assay Category>


>  <Assay Organism>
Homo sapiens

>  <Target ID>
56

>  <Target Name>
Androgen Receptor

>  <Target Organism>
Homo sapiens

>  <Target Description>
Target is a single protein chain

>  <Sequence Accession>
P10275

>  <Reference>
Bioorg Med Chem Lett 18 (6), 1910-1915 (2008)

>  <Pubmed ID>
18291644

>  <DOI>
10.1016/j.bmcl.2008.02.006

$$$$
435570
Actelion Java MolfileCreator 1.0

 23 26  0  0  1  0  0  0  0  0999 V2000
    0.0000   -0.0000   -0.0000 Cl  0  0  0  0  0  0  0  0  0  0  0  0
    1.3389    0.7996   -0.0000 C   0  0  0  0  0  0  0  0  0  0  0  0
    1.3203    2.3803   -0.0000 C   0  0  0  0  0  0  0  0  0  0  0  0
    2.6778    0.0372   -0.0000 C   0  0  0  0  0  0  0  0  0  0  0  0
    2.6592    3.1799   -0.0000 N   0  0  0  0  0  0  0  0  0  0  0  0
   -0.0558    3.1799   -0.0000 C   0  0  0  0  0  0  0  0  0  0  0  0
    4.0168    0.8368   -0.0000 C   0  0  0  0  0  0  0  0  0  0  0  0
    3.9982    2.4175   -0.0000 C   0  0  0  0  0  0  0  0  0  0  0  0
   -1.4319    3.9796   -0.0000 N   0  0  0  0  0  0  0  0  0  0  0  0
    5.3557    0.0744   -0.0000 N   0  0  0  0  0  0  0  0  0  0  0  0
    4.9280   -1.1530   -0.0000 C   0  0  0  0  0  0  0  0  0  0  0  0
    6.6574    0.0930   -0.0000 C   0  0  0  0  0  0  0  0  0  0  0  0
    3.6634   -1.5249   -0.0000 O   0  0  0  0  0  0  0  0  0  0  0  0
    5.9694   -1.9154   -0.0000 C   0  0  0  0  0  0  0  0  0  0  0  0
    7.2897    1.2459   -0.0000 O   0  0  0  0  0  0  0  0  0  0  0  0
    7.0293   -1.1344   -0.0000 C   0  0  0  0  0  0  0  0  0  0  0  0
    7.4570   -1.8596   -0.0000 C   0  0  0  0  0  0  0  0  0  0  0  0
    8.3497   -0.8740   -0.0000 C   0  0  0  0  0  0  0  0  0  0  0  0
    8.6844    0.5207   -0.0000 O   0  0  0  0  0  0  0  0  0  0  0  0
    8.3125   -2.9568   -0.0000 C   0  0  0  0  0  0  0  0  0  0  0  0
    6.7318   -3.2357   -0.0000 C   0  0  0  0  0  0  0  0  0  0  0  0
    9.2423   -2.1757   -0.0000 C   0  0  0  0  0  0  0  0  0  0  0  0
    9.6700   -0.0744   -0.0000 C   0  0  0  0  0  0  0  0  0  0  0  0
  1  2  1  0  0  0  0
  2  3  2  0  0  0  0
  2  4  1  0  0  0  0
  3  5  1  0  0  0  0
  3  6  1  0  0  0  0
  4  7  2  0  0  0  0
  5  8  2  0  0  0  0
  6  9  3  0  0  0  0
  7 10  1  0  0  0  0
 10 11  1  0  0  0  0
 10 12  1  0  0  0  0
 11 13  2  0  0  0  0
 14 11  1  1  0  0  0
 12 15  2  0  0  0  0
 16 12  1  1  0  0  0
 14 17  1  0  0  0  0
 16 18  1  0  0  0  0
 17 19  1  0  0  0  0
 17 20  1  0  0  0  0
 17 21  1  0  0  0  0
 18 22  1  0  0  0  0
 18 23  1  0  0  0  0
  7  8  1  0  0  0  0
 14 16  1  0  0  0  0
 18 19  1  0  0  0  0
 20 22  1  0  0  0  0
M  END
>  <MolRegNo>
435570

>  <m>
=

>  <Value>
4

>  <Unit>
nM

>  <Type>
Ki

>  <pValue>
8.4

>  <Ligand Efficiency>
0.5

>  <Binding Efficiency>
25.31

>  <Surface Efficiency>
10.08

>  <Assay Index>
313568

>  <Assay Category>


>  <Assay Organism>
Homo sapiens

>  <Target ID>
56

>  <Target Name>
Androgen Receptor

>  <Target Organism>
Homo sapiens

>  <Target Description>
Target is a single protein chain

>  <Sequence Accession>
P10275

>  <Reference>
Bioorg Med Chem Lett 18 (6), 1910-1915 (2008)

>  <Pubmed ID>
18291644

>  <DOI>
10.1016/j.bmcl.2008.02.006

$$$$
435573
Actelion Java MolfileCreator 1.0

 27 30  0  0  1  0  0  0  0  0999 V2000
    0.0000   -0.0000   -0.0000 F   0  0  0  0  0  0  0  0  0  0  0  0
    0.7402   -1.3324   -0.0000 C   0  0  0  0  0  0  0  0  0  0  0  0
    1.4990   -2.6649   -0.0000 F   0  0  0  0  0  0  0  0  0  0  0  0
   -0.6292   -2.0727   -0.0000 F   0  0  0  0  0  0  0  0  0  0  0  0
    2.0727   -0.5367   -0.0000 C   0  0  0  0  0  0  0  0  0  0  0  0
    2.0542    1.0363   -0.0000 C   0  0  0  0  0  0  0  0  0  0  0  0
    3.4051   -1.2954   -0.0000 C   0  0  0  0  0  0  0  0  0  0  0  0
    0.7032    1.8321   -0.0000 N   0  0  0  0  0  0  0  0  0  0  0  0
    3.3866    1.8321   -0.0000 C   0  0  0  0  0  0  0  0  0  0  0  0
    4.7375   -0.4997   -0.0000 C   0  0  0  0  0  0  0  0  0  0  0  0
   -0.6662    1.0733   -0.0000 O   0  0  0  0  0  0  0  0  0  0  0  0
    0.6847    3.4051   -0.0000 O   0  0  0  0  0  0  0  0  0  0  0  0
    4.7190    1.0733   -0.0000 C   0  0  0  0  0  0  0  0  0  0  0  0
    6.0700   -1.2584   -0.0000 N   0  0  0  0  0  0  0  0  0  0  0  0
    5.6443   -2.4798   -0.0000 C   0  0  0  0  0  0  0  0  0  0  0  0
    7.3654   -1.2399   -0.0000 C   0  0  0  0  0  0  0  0  0  0  0  0
    4.3859   -2.8684   -0.0000 O   0  0  0  0  0  0  0  0  0  0  0  0
    6.6807   -3.2386   -0.0000 C   0  0  0  0  0  0  0  0  0  0  0  0
    7.9946   -0.0925   -0.0000 O   0  0  0  0  0  0  0  0  0  0  0  0
    7.7540   -2.4613   -0.0000 C   0  0  0  0  0  0  0  0  0  0  0  0
    8.1612   -3.1830   -0.0000 C   0  0  0  0  0  0  0  0  0  0  0  0
    9.0680   -2.2022   -0.0000 C   0  0  0  0  0  0  0  0  0  0  0  0
    9.3826   -0.8143   -0.0000 O   0  0  0  0  0  0  0  0  0  0  0  0
    9.0124   -4.2749   -0.0000 C   0  0  0  0  0  0  0  0  0  0  0  0
    7.4394   -4.5525   -0.0000 C   0  0  0  0  0  0  0  0  0  0  0  0
    9.9562   -3.4976   -0.0000 C   0  0  0  0  0  0  0  0  0  0  0  0
   10.3819   -1.4065   -0.0000 C   0  0  0  0  0  0  0  0  0  0  0  0
  1  2  1  0  0  0  0
  2  3  1  0  0  0  0
  2  4  1  0  0  0  0
  2  5  1  0  0  0  0
  5  6  2  0  0  0  0
  5  7  1  0  0  0  0
  6  8  1  0  0  0  0
  6  9  1  0  0  0  0
  7 10  2  0  0  0  0
  8 11  2  0  0  0  0
  8 12  1  0  0  0  0
  9 13  2  0  0  0  0
 10 14  1  0  0  0  0
 14 15  1  0  0  0  0
 14 16  1  0  0  0  0
 15 17  2  0  0  0  0
 18 15  1  1  0  0  0
 16 19  2  0  0  0  0
 20 16  1  1  0  0  0
 18 21  1  0  0  0  0
 20 22  1  0  0  0  0
 21 23  1  0  0  0  0
 21 24  1  0  0  0  0
 21 25  1  0  0  0  0
 22 26  1  0  0  0  0
 22 27  1  0  0  0  0
 10 13  1  0  0  0  0
 18 20  1  0  0  0  0
 22 23  1  0  0  0  0
 24 26  1  0  0  0  0
M  CHG  2   8   1  12  -1
M  END
>  <MolRegNo>
435573

>  <m>
=

>  <Value>
17

>  <Unit>
nM

>  <Type>
Ki

>  <pValue>
7.77

>  <Ligand Efficiency>
0.39

>  <Binding Efficiency>
20.22

>  <Surface Efficiency>
8.66

>  <Assay Index>
313568

>  <Assay Category>


>  <Assay Organism>
Homo sapiens

>  <Target ID>
56

>  <Target Name>
Androgen Receptor

>  <Target Organism>
Homo sapiens

>  <Target Description>
Target is a single protein chain

>  <Sequence Accession>
P10275

>  <Reference>
Bioorg Med Chem Lett 18 (6), 1910-1915 (2008)

>  <Pubmed ID>
18291644

>  <DOI>
10.1016/j.bmcl.2008.02.006

$$$$
435572
Actelion Java MolfileCreator 1.0

 22 25  0  0  1  0  0  0  0  0999 V2000
    0.0000   -0.0000   -0.0000 Cl  0  0  0  0  0  0  0  0  0  0  0  0
    1.3424    0.8017   -0.0000 C   0  0  0  0  0  0  0  0  0  0  0  0
    1.3237    2.3865   -0.0000 C   0  0  0  0  0  0  0  0  0  0  0  0
    2.6848    0.0373   -0.0000 C   0  0  0  0  0  0  0  0  0  0  0  0
    2.6661    3.1882   -0.0000 C   0  0  0  0  0  0  0  0  0  0  0  0
    4.0272    0.8390   -0.0000 C   0  0  0  0  0  0  0  0  0  0  0  0
    2.6475    4.7730   -0.0000 Cl  0  0  0  0  0  0  0  0  0  0  0  0
    4.0085    2.4238   -0.0000 C   0  0  0  0  0  0  0  0  0  0  0  0
    5.3696    0.0746   -0.0000 N   0  0  0  0  0  0  0  0  0  0  0  0
    4.9408   -1.1559   -0.0000 C   0  0  0  0  0  0  0  0  0  0  0  0
    6.6747    0.0932   -0.0000 C   0  0  0  0  0  0  0  0  0  0  0  0
    3.6729   -1.5475   -0.0000 O   0  0  0  0  0  0  0  0  0  0  0  0
    5.9848   -1.9204   -0.0000 C   0  0  0  0  0  0  0  0  0  0  0  0
    7.3086    1.2492   -0.0000 O   0  0  0  0  0  0  0  0  0  0  0  0
    7.0476   -1.1373   -0.0000 C   0  0  0  0  0  0  0  0  0  0  0  0
    7.4764   -1.8644   -0.0000 C   0  0  0  0  0  0  0  0  0  0  0  0
    8.3713   -0.8763   -0.0000 C   0  0  0  0  0  0  0  0  0  0  0  0
    8.7069    0.5220   -0.0000 O   0  0  0  0  0  0  0  0  0  0  0  0
    8.3340   -2.9645   -0.0000 C   0  0  0  0  0  0  0  0  0  0  0  0
    6.7493   -3.2441   -0.0000 C   0  0  0  0  0  0  0  0  0  0  0  0
    9.2662   -2.1814   -0.0000 C   0  0  0  0  0  0  0  0  0  0  0  0
    9.6951   -0.0746   -0.0000 C   0  0  0  0  0  0  0  0  0  0  0  0
  1  2  1  0  0  0  0
  2  3  2  0  0  0  0
  2  4  1  0  0  0  0
  3  5  1  0  0  0  0
  4  6  2  0  0  0  0
  5  7  1  0  0  0  0
  5  8  2  0  0  0  0
  6  9  1  0  0  0  0
  9 10  1  0  0  0  0
  9 11  1  0  0  0  0
 10 12  2  0  0  0  0
 13 10  1  1  0  0  0
 11 14  2  0  0  0  0
 15 11  1  1  0  0  0
 13 16  1  0  0  0  0
 15 17  1  0  0  0  0
 16 18  1  0  0  0  0
 16 19  1  0  0  0  0
 16 20  1  0  0  0  0
 17 21  1  0  0  0  0
 17 22  1  0  0  0  0
  6  8  1  0  0  0  0
 13 15  1  0  0  0  0
 17 18  1  0  0  0  0
 19 21  1  0  0  0  0
M  END
>  <MolRegNo>
435572

>  <m>
=

>  <Value>
3

>  <Unit>
nM

>  <Type>
Ki

>  <pValue>
8.52

>  <Ligand Efficiency>
0.53

>  <Binding Efficiency>
25.05

>  <Surface Efficiency>
18.29

>  <Assay Index>
313568

>  <Assay Category>


>  <Assay Organism>
Homo sapiens

>  <Target ID>
56

>  <Target Name>
Androgen Receptor

>  <Target Organism>
Homo sapiens

>  <Target Description>
Target is a single protein chain

>  <Sequence Accession>
P10275

>  <Reference>
Bioorg Med Chem Lett 18 (6), 1910-1915 (2008)

>  <Pubmed ID>
18291644

>  <DOI>
10.1016/j.bmcl.2008.02.006

$$$$
435614
Actelion Java MolfileCreator 1.0

 24 27  0  0  1  0  0  0  0  0999 V2000
    0.0000   -0.0000   -0.0000 S   0  0  0  0  0  0  0  0  0  0  0  0
    1.3347    0.7971   -0.0000 C   0  0  0  0  0  0  0  0  0  0  0  0
   -1.3718    0.7971   -0.0000 C   0  0  0  0  0  0  0  0  0  0  0  0
    1.3162    2.3728   -0.0000 C   0  0  0  0  0  0  0  0  0  0  0  0
    2.6694    0.0371   -0.0000 C   0  0  0  0  0  0  0  0  0  0  0  0
   -0.0556    3.1700   -0.0000 C   0  0  0  0  0  0  0  0  0  0  0  0
    2.6509    3.1700   -0.0000 C   0  0  0  0  0  0  0  0  0  0  0  0
    4.0042    0.8342   -0.0000 C   0  0  0  0  0  0  0  0  0  0  0  0
   -1.4274    3.9671   -0.0000 N   0  0  0  0  0  0  0  0  0  0  0  0
    3.9856    2.4099   -0.0000 C   0  0  0  0  0  0  0  0  0  0  0  0
    5.3389    0.0742   -0.0000 N   0  0  0  0  0  0  0  0  0  0  0  0
    4.9125   -1.1493   -0.0000 C   0  0  0  0  0  0  0  0  0  0  0  0
    6.6365    0.0927   -0.0000 C   0  0  0  0  0  0  0  0  0  0  0  0
    3.6519   -1.5386   -0.0000 O   0  0  0  0  0  0  0  0  0  0  0  0
    5.9506   -1.9094   -0.0000 C   0  0  0  0  0  0  0  0  0  0  0  0
    7.2668    1.2420   -0.0000 O   0  0  0  0  0  0  0  0  0  0  0  0
    7.0258   -1.1308   -0.0000 C   0  0  0  0  0  0  0  0  0  0  0  0
    7.4336   -1.8538   -0.0000 C   0  0  0  0  0  0  0  0  0  0  0  0
    8.3420   -0.8713   -0.0000 C   0  0  0  0  0  0  0  0  0  0  0  0
    8.6571    0.5191   -0.0000 O   0  0  0  0  0  0  0  0  0  0  0  0
    8.2864   -2.9475   -0.0000 C   0  0  0  0  0  0  0  0  0  0  0  0
    6.7107   -3.2256   -0.0000 C   0  0  0  0  0  0  0  0  0  0  0  0
    9.2318   -2.1689   -0.0000 C   0  0  0  0  0  0  0  0  0  0  0  0
    9.6582   -0.0742   -0.0000 C   0  0  0  0  0  0  0  0  0  0  0  0
  1  2  1  0  0  0  0
  1  3  1  0  0  0  0
  2  4  2  0  0  0  0
  2  5  1  0  0  0  0
  4  6  1  0  0  0  0
  4  7  1  0  0  0  0
  5  8  2  0  0  0  0
  6  9  3  0  0  0  0
  7 10  2  0  0  0  0
  8 11  1  0  0  0  0
 11 12  1  0  0  0  0
 11 13  1  0  0  0  0
 12 14  2  0  0  0  0
 15 12  1  1  0  0  0
 13 16  2  0  0  0  0
 17 13  1  1  0  0  0
 15 18  1  0  0  0  0
 17 19  1  0  0  0  0
 18 20  1  0  0  0  0
 18 21  1  0  0  0  0
 18 22  1  0  0  0  0
 19 23  1  0  0  0  0
 19 24  1  0  0  0  0
  8 10  1  0  0  0  0
 15 17  1  0  0  0  0
 19 20  1  0  0  0  0
 21 23  1  0  0  0  0
M  END
>  <MolRegNo>
435614

>  <m>
=

>  <Value>
3

>  <Unit>
nM

>  <Type>
Ki

>  <pValue>
8.52

>  <Ligand Efficiency>
0.48

>  <Binding Efficiency>
24.89

>  <Surface Efficiency>
12.11

>  <Assay Index>
313568

>  <Assay Category>


>  <Assay Organism>
Homo sapiens

>  <Target ID>
56

>  <Target Name>
Androgen Receptor

>  <Target Organism>
Homo sapiens

>  <Target Description>
Target is a single protein chain

>  <Sequence Accession>
P10275

>  <Reference>
Bioorg Med Chem Lett 18 (6), 1910-1915 (2008)

>  <Pubmed ID>
18291644

>  <DOI>
10.1016/j.bmcl.2008.02.006

$$$$
435613
Actelion Java MolfileCreator 1.0

 23 26  0  0  1  0  0  0  0  0999 V2000
    0.0000   -0.0000   -0.0000 I   0  0  0  0  0  0  0  0  0  0  0  0
    1.3389    0.7996   -0.0000 C   0  0  0  0  0  0  0  0  0  0  0  0
    1.3203    2.3803   -0.0000 C   0  0  0  0  0  0  0  0  0  0  0  0
    2.6778    0.0372   -0.0000 C   0  0  0  0  0  0  0  0  0  0  0  0
   -0.0558    3.1799   -0.0000 C   0  0  0  0  0  0  0  0  0  0  0  0
    2.6592    3.1799   -0.0000 C   0  0  0  0  0  0  0  0  0  0  0  0
    4.0168    0.8368   -0.0000 C   0  0  0  0  0  0  0  0  0  0  0  0
   -1.4319    3.9796   -0.0000 N   0  0  0  0  0  0  0  0  0  0  0  0
    3.9982    2.4175   -0.0000 C   0  0  0  0  0  0  0  0  0  0  0  0
    5.3557    0.0744   -0.0000 N   0  0  0  0  0  0  0  0  0  0  0  0
    4.9280   -1.1530   -0.0000 C   0  0  0  0  0  0  0  0  0  0  0  0
    6.6574    0.0930   -0.0000 C   0  0  0  0  0  0  0  0  0  0  0  0
    3.6634   -1.5249   -0.0000 O   0  0  0  0  0  0  0  0  0  0  0  0
    5.9694   -1.9154   -0.0000 C   0  0  0  0  0  0  0  0  0  0  0  0
    7.2897    1.2459   -0.0000 O   0  0  0  0  0  0  0  0  0  0  0  0
    7.0293   -1.1344   -0.0000 C   0  0  0  0  0  0  0  0  0  0  0  0
    7.4570   -1.8596   -0.0000 C   0  0  0  0  0  0  0  0  0  0  0  0
    8.3497   -0.8740   -0.0000 C   0  0  0  0  0  0  0  0  0  0  0  0
    8.6844    0.5207   -0.0000 O   0  0  0  0  0  0  0  0  0  0  0  0
    8.3125   -2.9568   -0.0000 C   0  0  0  0  0  0  0  0  0  0  0  0
    6.7318   -3.2357   -0.0000 C   0  0  0  0  0  0  0  0  0  0  0  0
    9.2423   -2.1757   -0.0000 C   0  0  0  0  0  0  0  0  0  0  0  0
    9.6700   -0.0744   -0.0000 C   0  0  0  0  0  0  0  0  0  0  0  0
  1  2  1  0  0  0  0
  2  3  2  0  0  0  0
  2  4  1  0  0  0  0
  3  5  1  0  0  0  0
  3  6  1  0  0  0  0
  4  7  2  0  0  0  0
  5  8  3  0  0  0  0
  6  9  2  0  0  0  0
  7 10  1  0  0  0  0
 10 11  1  0  0  0  0
 10 12  1  0  0  0  0
 11 13  2  0  0  0  0
 14 11  1  1  0  0  0
 12 15  2  0  0  0  0
 16 12  1  1  0  0  0
 14 17  1  0  0  0  0
 16 18  1  0  0  0  0
 17 19  1  0  0  0  0
 17 20  1  0  0  0  0
 17 21  1  0  0  0  0
 18 22  1  0  0  0  0
 18 23  1  0  0  0  0
  7  9  1  0  0  0  0
 14 16  1  0  0  0  0
 18 19  1  0  0  0  0
 20 22  1  0  0  0  0
M  END
>  <MolRegNo>
435613

>  <m>
=

>  <Value>
1

>  <Unit>
nM

>  <Type>
Ki

>  <pValue>
9

>  <Ligand Efficiency>
0.53

>  <Binding Efficiency>
21.32

>  <Surface Efficiency>
12.78

>  <Assay Index>
313568

>  <Assay Category>


>  <Assay Organism>
Homo sapiens

>  <Target ID>
56

>  <Target Name>
Androgen Receptor

>  <Target Organism>
Homo sapiens

>  <Target Description>
Target is a single protein chain

>  <Sequence Accession>
P10275

>  <Reference>
Bioorg Med Chem Lett 18 (6), 1910-1915 (2008)

>  <Pubmed ID>
18291644

>  <DOI>
10.1016/j.bmcl.2008.02.006

$$$$
435615
Actelion Java MolfileCreator 1.0

 26 29  0  0  1  0  0  0  0  0999 V2000
    0.0000   -0.0000   -0.0000 F   0  0  0  0  0  0  0  0  0  0  0  0
    0.0000   -1.5381   -0.0000 C   0  0  0  0  0  0  0  0  0  0  0  0
    1.5381   -1.5196   -0.0000 F   0  0  0  0  0  0  0  0  0  0  0  0
   -1.5752   -1.5381   -0.0000 F   0  0  0  0  0  0  0  0  0  0  0  0
   -0.0185   -3.0762   -0.0000 C   0  0  0  0  0  0  0  0  0  0  0  0
   -1.3899   -3.8360   -0.0000 C   0  0  0  0  0  0  0  0  0  0  0  0
    1.3157   -3.8360   -0.0000 C   0  0  0  0  0  0  0  0  0  0  0  0
   -2.7612   -3.0392   -0.0000 C   0  0  0  0  0  0  0  0  0  0  0  0
   -1.4084   -5.3742   -0.0000 C   0  0  0  0  0  0  0  0  0  0  0  0
    1.3157   -5.3742   -0.0000 C   0  0  0  0  0  0  0  0  0  0  0  0
   -4.1325   -2.2423   -0.0000 N   0  0  0  0  0  0  0  0  0  0  0  0
   -0.0741   -6.1339   -0.0000 C   0  0  0  0  0  0  0  0  0  0  0  0
    2.6500   -6.1339   -0.0000 N   0  0  0  0  0  0  0  0  0  0  0  0
    2.2238   -7.3570   -0.0000 C   0  0  0  0  0  0  0  0  0  0  0  0
    3.9472   -6.1154   -0.0000 C   0  0  0  0  0  0  0  0  0  0  0  0
    0.9636   -7.7277   -0.0000 O   0  0  0  0  0  0  0  0  0  0  0  0
    3.2616   -8.1168   -0.0000 C   0  0  0  0  0  0  0  0  0  0  0  0
    4.5773   -4.9665   -0.0000 O   0  0  0  0  0  0  0  0  0  0  0  0
    4.3364   -7.3385   -0.0000 C   0  0  0  0  0  0  0  0  0  0  0  0
    4.7441   -8.0612   -0.0000 C   0  0  0  0  0  0  0  0  0  0  0  0
    5.6521   -7.0791   -0.0000 C   0  0  0  0  0  0  0  0  0  0  0  0
    5.9672   -5.6892   -0.0000 O   0  0  0  0  0  0  0  0  0  0  0  0
    5.5965   -9.1546   -0.0000 C   0  0  0  0  0  0  0  0  0  0  0  0
    4.0213   -9.4326   -0.0000 C   0  0  0  0  0  0  0  0  0  0  0  0
    6.5416   -8.3763   -0.0000 C   0  0  0  0  0  0  0  0  0  0  0  0
    6.9679   -6.2822   -0.0000 C   0  0  0  0  0  0  0  0  0  0  0  0
  1  2  1  0  0  0  0
  2  3  1  0  0  0  0
  2  4  1  0  0  0  0
  2  5  1  0  0  0  0
  5  6  2  0  0  0  0
  5  7  1  0  0  0  0
  6  8  1  0  0  0  0
  6  9  1  0  0  0  0
  7 10  2  0  0  0  0
  8 11  3  0  0  0  0
  9 12  2  0  0  0  0
 10 13  1  0  0  0  0
 13 14  1  0  0  0  0
 13 15  1  0  0  0  0
 14 16  2  0  0  0  0
 17 14  1  1  0  0  0
 15 18  2  0  0  0  0
 19 15  1  1  0  0  0
 17 20  1  0  0  0  0
 19 21  1  0  0  0  0
 20 22  1  0  0  0  0
 20 23  1  0  0  0  0
 20 24  1  0  0  0  0
 21 25  1  0  0  0  0
 21 26  1  0  0  0  0
 10 12  1  0  0  0  0
 17 19  1  0  0  0  0
 21 22  1  0  0  0  0
 23 25  1  0  0  0  0
M  END
>  <MolRegNo>
435615

>  <m>
=

>  <Value>
17

>  <Unit>
nM

>  <Type>
Ki

>  <pValue>
7.77

>  <Ligand Efficiency>
0.41

>  <Binding Efficiency>
21.33

>  <Surface Efficiency>
11.04

>  <Assay Index>
313568

>  <Assay Category>


>  <Assay Organism>
Homo sapiens

>  <Target ID>
56

>  <Target Name>
Androgen Receptor

>  <Target Organism>
Homo sapiens

>  <Target Description>
Target is a single protein chain

>  <Sequence Accession>
P10275

>  <Reference>
Bioorg Med Chem Lett 18 (6), 1910-1915 (2008)

>  <Pubmed ID>
18291644

>  <DOI>
10.1016/j.bmcl.2008.02.006

$$$$
435616
Actelion Java MolfileCreator 1.0

 24 27  0  0  1  0  0  0  0  0999 V2000
    0.0000   -0.0000   -0.0000 F   0  0  0  0  0  0  0  0  0  0  0  0
    0.0000   -1.5445   -0.0000 C   0  0  0  0  0  0  0  0  0  0  0  0
    1.5445   -1.5259   -0.0000 F   0  0  0  0  0  0  0  0  0  0  0  0
   -1.5817   -1.5445   -0.0000 F   0  0  0  0  0  0  0  0  0  0  0  0
   -0.0186   -3.0890   -0.0000 C   0  0  0  0  0  0  0  0  0  0  0  0
    1.3212   -3.8519   -0.0000 C   0  0  0  0  0  0  0  0  0  0  0  0
   -1.3956   -3.8519   -0.0000 C   0  0  0  0  0  0  0  0  0  0  0  0
    1.3212   -5.3964   -0.0000 C   0  0  0  0  0  0  0  0  0  0  0  0
   -1.4142   -5.3964   -0.0000 C   0  0  0  0  0  0  0  0  0  0  0  0
    2.6610   -6.1593   -0.0000 N   0  0  0  0  0  0  0  0  0  0  0  0
   -0.0558   -6.1593   -0.0000 C   0  0  0  0  0  0  0  0  0  0  0  0
    2.2330   -7.3875   -0.0000 C   0  0  0  0  0  0  0  0  0  0  0  0
    3.9635   -6.1407   -0.0000 C   0  0  0  0  0  0  0  0  0  0  0  0
    0.9676   -7.7782   -0.0000 O   0  0  0  0  0  0  0  0  0  0  0  0
    3.2750   -8.1504   -0.0000 C   0  0  0  0  0  0  0  0  0  0  0  0
    4.5962   -4.9870   -0.0000 O   0  0  0  0  0  0  0  0  0  0  0  0
    4.3543   -7.3689   -0.0000 C   0  0  0  0  0  0  0  0  0  0  0  0
    4.7637   -8.0946   -0.0000 C   0  0  0  0  0  0  0  0  0  0  0  0
    5.6755   -7.1083   -0.0000 C   0  0  0  0  0  0  0  0  0  0  0  0
    5.9918   -5.7127   -0.0000 O   0  0  0  0  0  0  0  0  0  0  0  0
    5.6197   -9.1925   -0.0000 C   0  0  0  0  0  0  0  0  0  0  0  0
    4.0380   -9.4716   -0.0000 C   0  0  0  0  0  0  0  0  0  0  0  0
    6.5687   -8.4109   -0.0000 C   0  0  0  0  0  0  0  0  0  0  0  0
    6.9967   -6.3082   -0.0000 C   0  0  0  0  0  0  0  0  0  0  0  0
  1  2  1  0  0  0  0
  2  3  1  0  0  0  0
  2  4  1  0  0  0  0
  2  5  1  0  0  0  0
  5  6  2  0  0  0  0
  5  7  1  0  0  0  0
  6  8  1  0  0  0  0
  7  9  2  0  0  0  0
  8 10  1  0  0  0  0
  8 11  2  0  0  0  0
 10 12  1  0  0  0  0
 10 13  1  0  0  0  0
 12 14  2  0  0  0  0
 15 12  1  1  0  0  0
 13 16  2  0  0  0  0
 17 13  1  1  0  0  0
 15 18  1  0  0  0  0
 17 19  1  0  0  0  0
 18 20  1  0  0  0  0
 18 21  1  0  0  0  0
 18 22  1  0  0  0  0
 19 23  1  0  0  0  0
 19 24  1  0  0  0  0
  9 11  1  0  0  0  0
 15 17  1  0  0  0  0
 19 20  1  0  0  0  0
 21 23  1  0  0  0  0
M  END
>  <MolRegNo>
435616

>  <m>
=

>  <Value>
41

>  <Unit>
nM

>  <Type>
Ki

>  <pValue>
7.39

>  <Ligand Efficiency>
0.42

>  <Binding Efficiency>
21.77

>  <Surface Efficiency>
15.85

>  <Assay Index>
313568

>  <Assay Category>


>  <Assay Organism>
Homo sapiens

>  <Target ID>
56

>  <Target Name>
Androgen Receptor

>  <Target Organism>
Homo sapiens

>  <Target Description>
Target is a single protein chain

>  <Sequence Accession>
P10275

>  <Reference>
Bioorg Med Chem Lett 18 (6), 1910-1915 (2008)

>  <Pubmed ID>
18291644

>  <DOI>
10.1016/j.bmcl.2008.02.006

$$$$
435659
Actelion Java MolfileCreator 1.0

 23 26  0  0  1  0  0  0  0  0999 V2000
    0.0000   -0.0000   -0.0000 F   0  0  0  0  0  0  0  0  0  0  0  0
    1.5483    0.0248   -0.0000 C   0  0  0  0  0  0  0  0  0  0  0  0
    1.5235    1.6102   -0.0000 F   0  0  0  0  0  0  0  0  0  0  0  0
    3.0966    0.0372   -0.0000 F   0  0  0  0  0  0  0  0  0  0  0  0
    1.5359   -1.5235   -0.0000 C   0  0  0  0  0  0  0  0  0  0  0  0
    2.8736   -2.2915   -0.0000 C   0  0  0  0  0  0  0  0  0  0  0  0
    0.1734   -2.2915   -0.0000 C   0  0  0  0  0  0  0  0  0  0  0  0
    2.8736   -3.8521   -0.0000 C   0  0  0  0  0  0  0  0  0  0  0  0
    0.1610   -3.8521   -0.0000 C   0  0  0  0  0  0  0  0  0  0  0  0
    4.2237   -4.6201   -0.0000 N   0  0  0  0  0  0  0  0  0  0  0  0
    1.4987   -4.6201   -0.0000 C   0  0  0  0  0  0  0  0  0  0  0  0
    5.5243   -4.6077   -0.0000 C   0  0  0  0  0  0  0  0  0  0  0  0
    3.8026   -5.8587   -0.0000 C   0  0  0  0  0  0  0  0  0  0  0  0
    6.1560   -3.4558   -0.0000 O   0  0  0  0  0  0  0  0  0  0  0  0
    5.9083   -5.8463   -0.0000 C   0  0  0  0  0  0  0  0  0  0  0  0
    2.5392   -6.2427   -0.0000 O   0  0  0  0  0  0  0  0  0  0  0  0
    4.8554   -6.6267   -0.0000 C   0  0  0  0  0  0  0  0  0  0  0  0
    7.2336   -5.5986   -0.0000 C   0  0  0  0  0  0  0  0  0  0  0  0
    6.3542   -6.5771   -0.0000 C   0  0  0  0  0  0  0  0  0  0  0  0
    7.5680   -4.1866   -0.0000 O   0  0  0  0  0  0  0  0  0  0  0  0
    8.1254   -6.9115   -0.0000 C   0  0  0  0  0  0  0  0  0  0  0  0
    8.5713   -4.7935   -0.0000 C   0  0  0  0  0  0  0  0  0  0  0  0
    7.2212   -7.6795   -0.0000 C   0  0  0  0  0  0  0  0  0  0  0  0
  1  2  1  0  0  0  0
  2  3  1  0  0  0  0
  2  4  1  0  0  0  0
  2  5  1  0  0  0  0
  5  6  2  0  0  0  0
  5  7  1  0  0  0  0
  6  8  1  0  0  0  0
  7  9  2  0  0  0  0
  8 10  1  0  0  0  0
  8 11  2  0  0  0  0
 10 12  1  0  0  0  0
 10 13  1  0  0  0  0
 12 14  2  0  0  0  0
 15 12  1  1  0  0  0
 13 16  2  0  0  0  0
 17 13  1  1  0  0  0
 15 18  1  0  0  0  0
 17 19  1  0  0  0  0
 18 20  1  0  0  0  0
 18 21  1  0  0  0  0
 18 22  1  0  0  0  0
 19 23  1  0  0  0  0
  9 11  1  0  0  0  0
 15 17  1  0  0  0  0
 19 20  1  0  0  0  0
 21 23  1  0  0  0  0
M  END
>  <MolRegNo>
435659

>  <m>
=

>  <Value>
410

>  <Unit>
nM

>  <Type>
Ki

>  <pValue>
6.39

>  <Ligand Efficiency>
0.38

>  <Binding Efficiency>
19.64

>  <Surface Efficiency>
13.7

>  <Assay Index>
313568

>  <Assay Category>


>  <Assay Organism>
Homo sapiens

>  <Target ID>
56

>  <Target Name>
Androgen Receptor

>  <Target Organism>
Homo sapiens

>  <Target Description>
Target is a single protein chain

>  <Sequence Accession>
P10275

>  <Reference>
Bioorg Med Chem Lett 18 (6), 1910-1915 (2008)

>  <Pubmed ID>
18291644

>  <DOI>
10.1016/j.bmcl.2008.02.006

$$$$
435658
Actelion Java MolfileCreator 1.0

 22 25  0  0  1  0  0  0  0  0999 V2000
    0.0000   -0.0000   -0.0000 F   0  0  0  0  0  0  0  0  0  0  0  0
    1.5508    0.0248   -0.0000 C   0  0  0  0  0  0  0  0  0  0  0  0
    3.1016    0.0372   -0.0000 F   0  0  0  0  0  0  0  0  0  0  0  0
    1.5260    1.6129   -0.0000 F   0  0  0  0  0  0  0  0  0  0  0  0
    1.5384   -1.5260   -0.0000 C   0  0  0  0  0  0  0  0  0  0  0  0
    2.8783   -2.2952   -0.0000 C   0  0  0  0  0  0  0  0  0  0  0  0
    0.1737   -2.2952   -0.0000 C   0  0  0  0  0  0  0  0  0  0  0  0
    2.8783   -3.8584   -0.0000 C   0  0  0  0  0  0  0  0  0  0  0  0
    0.1613   -3.8584   -0.0000 C   0  0  0  0  0  0  0  0  0  0  0  0
    4.2306   -4.6276   -0.0000 N   0  0  0  0  0  0  0  0  0  0  0  0
    1.5012   -4.6276   -0.0000 C   0  0  0  0  0  0  0  0  0  0  0  0
    5.5333   -4.6152   -0.0000 C   0  0  0  0  0  0  0  0  0  0  0  0
    3.8088   -5.8683   -0.0000 C   0  0  0  0  0  0  0  0  0  0  0  0
    6.1661   -3.4614   -0.0000 O   0  0  0  0  0  0  0  0  0  0  0  0
    5.9179   -5.8559   -0.0000 C   0  0  0  0  0  0  0  0  0  0  0  0
    2.5433   -6.2529   -0.0000 O   0  0  0  0  0  0  0  0  0  0  0  0
    4.8634   -6.6375   -0.0000 C   0  0  0  0  0  0  0  0  0  0  0  0
    7.2454   -5.6078   -0.0000 C   0  0  0  0  0  0  0  0  0  0  0  0
    6.3646   -6.5879   -0.0000 C   0  0  0  0  0  0  0  0  0  0  0  0
    7.5804   -4.1934   -0.0000 O   0  0  0  0  0  0  0  0  0  0  0  0
    8.1387   -6.9229   -0.0000 C   0  0  0  0  0  0  0  0  0  0  0  0
    7.2330   -7.6921   -0.0000 C   0  0  0  0  0  0  0  0  0  0  0  0
  1  2  1  0  0  0  0
  2  3  1  0  0  0  0
  2  4  1  0  0  0  0
  2  5  1  0  0  0  0
  5  6  2  0  0  0  0
  5  7  1  0  0  0  0
  6  8  1  0  0  0  0
  7  9  2  0  0  0  0
  8 10  1  0  0  0  0
  8 11  2  0  0  0  0
 10 12  1  0  0  0  0
 10 13  1  0  0  0  0
 12 14  2  0  0  0  0
 15 12  1  1  0  0  0
 13 16  2  0  0  0  0
 17 13  1  1  0  0  0
 15 18  1  0  0  0  0
 17 19  1  0  0  0  0
 18 20  1  0  0  0  0
 18 21  1  0  0  0  0
 19 22  1  0  0  0  0
  9 11  1  0  0  0  0
 15 17  1  0  0  0  0
 19 20  1  0  0  0  0
 21 22  1  0  0  0  0
M  END
>  <MolRegNo>
435658

>  <m>
=

>  <Value>
4100

>  <Unit>
nM

>  <Type>
Ki

>  <pValue>
5.39

>  <Ligand Efficiency>
0.33

>  <Binding Efficiency>
17.31

>  <Surface Efficiency>
11.56

>  <Assay Index>
313568

>  <Assay Category>


>  <Assay Organism>
Homo sapiens

>  <Target ID>
56

>  <Target Name>
Androgen Receptor

>  <Target Organism>
Homo sapiens

>  <Target Description>
Target is a single protein chain

>  <Sequence Accession>
P10275

>  <Reference>
Bioorg Med Chem Lett 18 (6), 1910-1915 (2008)

>  <Pubmed ID>
18291644

>  <DOI>
10.1016/j.bmcl.2008.02.006

$$$$
435660
Actelion Java MolfileCreator 1.0

 24 27  0  0  1  0  0  0  0  0999 V2000
    0.0000   -0.0000   -0.0000 F   0  0  0  0  0  0  0  0  0  0  0  0
    0.0000   -1.5572   -0.0000 C   0  0  0  0  0  0  0  0  0  0  0  0
    1.5448   -1.5448   -0.0000 F   0  0  0  0  0  0  0  0  0  0  0  0
   -1.5695   -1.5572   -0.0000 F   0  0  0  0  0  0  0  0  0  0  0  0
   -0.0124   -3.1020   -0.0000 C   0  0  0  0  0  0  0  0  0  0  0  0
   -1.3718   -3.8682   -0.0000 C   0  0  0  0  0  0  0  0  0  0  0  0
    1.3224   -3.8682   -0.0000 C   0  0  0  0  0  0  0  0  0  0  0  0
   -2.7312   -3.0773   -0.0000 C   0  0  0  0  0  0  0  0  0  0  0  0
   -1.3842   -5.4254   -0.0000 C   0  0  0  0  0  0  0  0  0  0  0  0
    1.3224   -5.4254   -0.0000 C   0  0  0  0  0  0  0  0  0  0  0  0
   -4.0907   -2.2863   -0.0000 N   0  0  0  0  0  0  0  0  0  0  0  0
   -0.0371   -6.1916   -0.0000 C   0  0  0  0  0  0  0  0  0  0  0  0
    2.6694   -6.1916   -0.0000 N   0  0  0  0  0  0  0  0  0  0  0  0
    3.9671   -6.1793   -0.0000 C   0  0  0  0  0  0  0  0  0  0  0  0
    2.2493   -7.4275   -0.0000 C   0  0  0  0  0  0  0  0  0  0  0  0
    4.5974   -5.0299   -0.0000 O   0  0  0  0  0  0  0  0  0  0  0  0
    4.3502   -7.4151   -0.0000 C   0  0  0  0  0  0  0  0  0  0  0  0
    0.9887   -7.8106   -0.0000 O   0  0  0  0  0  0  0  0  0  0  0  0
    3.2997   -8.1937   -0.0000 C   0  0  0  0  0  0  0  0  0  0  0  0
    5.6726   -7.1679   -0.0000 C   0  0  0  0  0  0  0  0  0  0  0  0
    4.7951   -8.1443   -0.0000 C   0  0  0  0  0  0  0  0  0  0  0  0
    6.0062   -5.7591   -0.0000 O   0  0  0  0  0  0  0  0  0  0  0  0
    6.5624   -8.4780   -0.0000 C   0  0  0  0  0  0  0  0  0  0  0  0
    5.6602   -9.2442   -0.0000 C   0  0  0  0  0  0  0  0  0  0  0  0
  1  2  1  0  0  0  0
  2  3  1  0  0  0  0
  2  4  1  0  0  0  0
  2  5  1  0  0  0  0
  5  6  2  0  0  0  0
  5  7  1  0  0  0  0
  6  8  1  0  0  0  0
  6  9  1  0  0  0  0
  7 10  2  0  0  0  0
  8 11  3  0  0  0  0
  9 12  2  0  0  0  0
 10 13  1  0  0  0  0
 13 14  1  0  0  0  0
 13 15  1  0  0  0  0
 14 16  2  0  0  0  0
 17 14  1  1  0  0  0
 15 18  2  0  0  0  0
 19 15  1  1  0  0  0
 17 20  1  0  0  0  0
 19 21  1  0  0  0  0
 20 22  1  0  0  0  0
 20 23  1  0  0  0  0
 21 24  1  0  0  0  0
 10 12  1  0  0  0  0
 17 19  1  0  0  0  0
 21 22  1  0  0  0  0
 23 24  1  0  0  0  0
M  END
>  <MolRegNo>
435660

>  <m>
=

>  <Value>
1170

>  <Unit>
nM

>  <Type>
Ki

>  <pValue>
5.93

>  <Ligand Efficiency>
0.34

>  <Binding Efficiency>
17.64

>  <Surface Efficiency>
8.43

>  <Assay Index>
313568

>  <Assay Category>


>  <Assay Organism>
Homo sapiens

>  <Target ID>
56

>  <Target Name>
Androgen Receptor

>  <Target Organism>
Homo sapiens

>  <Target Description>
Target is a single protein chain

>  <Sequence Accession>
P10275

>  <Reference>
Bioorg Med Chem Lett 18 (6), 1910-1915 (2008)

>  <Pubmed ID>
18291644

>  <DOI>
10.1016/j.bmcl.2008.02.006

$$$$
435797
Actelion Java MolfileCreator 1.0

 23 26  0  0  1  0  0  0  0  0999 V2000
    0.0000   -0.0000   -0.0000 Cl  0  0  0  0  0  0  0  0  0  0  0  0
    1.3373   -0.7677   -0.0000 C   0  0  0  0  0  0  0  0  0  0  0  0
    2.6746    0.0248   -0.0000 C   0  0  0  0  0  0  0  0  0  0  0  0
    1.3249   -2.3279   -0.0000 C   0  0  0  0  0  0  0  0  0  0  0  0
    4.0119   -0.7429   -0.0000 C   0  0  0  0  0  0  0  0  0  0  0  0
    2.6622    1.5973   -0.0000 C   0  0  0  0  0  0  0  0  0  0  0  0
    2.6746   -3.0956   -0.0000 C   0  0  0  0  0  0  0  0  0  0  0  0
    4.0119   -2.3031   -0.0000 C   0  0  0  0  0  0  0  0  0  0  0  0
    1.0896    1.5973   -0.0000 F   0  0  0  0  0  0  0  0  0  0  0  0
    4.2100    1.6097   -0.0000 F   0  0  0  0  0  0  0  0  0  0  0  0
    2.6374    3.1823   -0.0000 F   0  0  0  0  0  0  0  0  0  0  0  0
    5.3616   -3.0708   -0.0000 N   0  0  0  0  0  0  0  0  0  0  0  0
    6.6617   -3.0584   -0.0000 C   0  0  0  0  0  0  0  0  0  0  0  0
    4.9406   -4.3091   -0.0000 C   0  0  0  0  0  0  0  0  0  0  0  0
    7.2932   -1.9069   -0.0000 O   0  0  0  0  0  0  0  0  0  0  0  0
    7.0456   -4.2967   -0.0000 C   0  0  0  0  0  0  0  0  0  0  0  0
    3.6776   -4.6929   -0.0000 O   0  0  0  0  0  0  0  0  0  0  0  0
    5.9931   -5.0768   -0.0000 C   0  0  0  0  0  0  0  0  0  0  0  0
    8.3705   -4.0490   -0.0000 C   0  0  0  0  0  0  0  0  0  0  0  0
    7.4913   -5.0272   -0.0000 C   0  0  0  0  0  0  0  0  0  0  0  0
    8.7048   -2.6374   -0.0000 O   0  0  0  0  0  0  0  0  0  0  0  0
    9.2620   -5.3616   -0.0000 C   0  0  0  0  0  0  0  0  0  0  0  0
    8.3581   -6.1293   -0.0000 C   0  0  0  0  0  0  0  0  0  0  0  0
  1  2  1  0  0  0  0
  2  3  2  0  0  0  0
  2  4  1  0  0  0  0
  3  5  1  0  0  0  0
  3  6  1  0  0  0  0
  4  7  2  0  0  0  0
  5  8  2  0  0  0  0
  6  9  1  0  0  0  0
  6 10  1  0  0  0  0
  6 11  1  0  0  0  0
  8 12  1  0  0  0  0
 12 13  1  0  0  0  0
 12 14  1  0  0  0  0
 13 15  2  0  0  0  0
 16 13  1  1  0  0  0
 14 17  2  0  0  0  0
 18 14  1  1  0  0  0
 16 19  1  0  0  0  0
 18 20  1  0  0  0  0
 19 21  1  0  0  0  0
 19 22  1  0  0  0  0
 20 23  1  0  0  0  0
  7  8  1  0  0  0  0
 16 18  1  0  0  0  0
 20 21  1  0  0  0  0
 22 23  1  0  0  0  0
M  END
>  <MolRegNo>
435797

>  <m>
=

>  <Value>
1110

>  <Unit>
nM

>  <Type>
Ki

>  <pValue>
5.96

>  <Ligand Efficiency>
0.35

>  <Binding Efficiency>
17.22

>  <Surface Efficiency>
12.78

>  <Assay Index>
313568

>  <Assay Category>


>  <Assay Organism>
Homo sapiens

>  <Target ID>
56

>  <Target Name>
Androgen Receptor

>  <Target Organism>
Homo sapiens

>  <Target Description>
Target is a single protein chain

>  <Sequence Accession>
P10275

>  <Reference>
Bioorg Med Chem Lett 18 (6), 1910-1915 (2008)

>  <Pubmed ID>
18291644

>  <DOI>
10.1016/j.bmcl.2008.02.006

$$$$
435796
Actelion Java MolfileCreator 1.0

 22 25  0  0  1  0  0  0  0  0999 V2000
    0.0000   -0.0000   -0.0000 Cl  0  0  0  0  0  0  0  0  0  0  0  0
    1.3505   -0.7682   -0.0000 C   0  0  0  0  0  0  0  0  0  0  0  0
    2.6887    0.0248   -0.0000 C   0  0  0  0  0  0  0  0  0  0  0  0
    1.3381   -2.3293   -0.0000 C   0  0  0  0  0  0  0  0  0  0  0  0
    2.6763    1.5983   -0.0000 N   0  0  0  0  0  0  0  0  0  0  0  0
    4.0268   -0.7434   -0.0000 C   0  0  0  0  0  0  0  0  0  0  0  0
    2.6887   -3.0975   -0.0000 C   0  0  0  0  0  0  0  0  0  0  0  0
    1.3133    2.4037   -0.0000 O   0  0  0  0  0  0  0  0  0  0  0  0
    4.0268    2.4037   -0.0000 O   0  0  0  0  0  0  0  0  0  0  0  0
    4.0268   -2.3046   -0.0000 C   0  0  0  0  0  0  0  0  0  0  0  0
    5.3773   -3.0727   -0.0000 N   0  0  0  0  0  0  0  0  0  0  0  0
    6.6783   -3.0604   -0.0000 C   0  0  0  0  0  0  0  0  0  0  0  0
    4.9560   -4.3118   -0.0000 C   0  0  0  0  0  0  0  0  0  0  0  0
    7.3102   -1.9081   -0.0000 O   0  0  0  0  0  0  0  0  0  0  0  0
    7.0624   -4.2994   -0.0000 C   0  0  0  0  0  0  0  0  0  0  0  0
    3.6922   -4.6958   -0.0000 O   0  0  0  0  0  0  0  0  0  0  0  0
    6.0092   -5.0799   -0.0000 C   0  0  0  0  0  0  0  0  0  0  0  0
    8.3881   -4.0516   -0.0000 C   0  0  0  0  0  0  0  0  0  0  0  0
    7.5084   -5.0304   -0.0000 C   0  0  0  0  0  0  0  0  0  0  0  0
    8.7226   -2.6391   -0.0000 O   0  0  0  0  0  0  0  0  0  0  0  0
    9.2802   -5.3649   -0.0000 C   0  0  0  0  0  0  0  0  0  0  0  0
    8.3757   -6.1455   -0.0000 C   0  0  0  0  0  0  0  0  0  0  0  0
  1  2  1  0  0  0  0
  2  3  2  0  0  0  0
  2  4  1  0  0  0  0
  3  5  1  0  0  0  0
  3  6  1  0  0  0  0
  4  7  2  0  0  0  0
  5  8  2  0  0  0  0
  5  9  1  0  0  0  0
  6 10  2  0  0  0  0
 10 11  1  0  0  0  0
 11 12  1  0  0  0  0
 11 13  1  0  0  0  0
 12 14  2  0  0  0  0
 15 12  1  1  0  0  0
 13 16  2  0  0  0  0
 17 13  1  1  0  0  0
 15 18  1  0  0  0  0
 17 19  1  0  0  0  0
 18 20  1  0  0  0  0
 18 21  1  0  0  0  0
 19 22  1  0  0  0  0
  7 10  1  0  0  0  0
 15 17  1  0  0  0  0
 19 20  1  0  0  0  0
 21 22  1  0  0  0  0
M  CHG  2   5   1   9  -1
M  END
>  <MolRegNo>
435796

>  <m>
=

>  <Value>
692

>  <Unit>
nM

>  <Type>
Ki

>  <pValue>
6.16

>  <Ligand Efficiency>
0.38

>  <Binding Efficiency>
19.09

>  <Surface Efficiency>
6.86

>  <Assay Index>
313568

>  <Assay Category>


>  <Assay Organism>
Homo sapiens

>  <Target ID>
56

>  <Target Name>
Androgen Receptor

>  <Target Organism>
Homo sapiens

>  <Target Description>
Target is a single protein chain

>  <Sequence Accession>
P10275

>  <Reference>
Bioorg Med Chem Lett 18 (6), 1910-1915 (2008)

>  <Pubmed ID>
18291644

>  <DOI>
10.1016/j.bmcl.2008.02.006

$$$$
435837
Actelion Java MolfileCreator 1.0

 20 23  0  0  1  0  0  0  0  0999 V2000
    0.0000   -0.0000   -0.0000 Cl  0  0  0  0  0  0  0  0  0  0  0  0
    1.3566   -0.7717   -0.0000 C   0  0  0  0  0  0  0  0  0  0  0  0
    2.7008    0.0249   -0.0000 C   0  0  0  0  0  0  0  0  0  0  0  0
    1.3442   -2.3399   -0.0000 C   0  0  0  0  0  0  0  0  0  0  0  0
    4.0450   -0.7468   -0.0000 C   0  0  0  0  0  0  0  0  0  0  0  0
    2.6884    1.6056   -0.0000 C   0  0  0  0  0  0  0  0  0  0  0  0
    2.7008   -3.1115   -0.0000 C   0  0  0  0  0  0  0  0  0  0  0  0
    4.0450   -2.3150   -0.0000 C   0  0  0  0  0  0  0  0  0  0  0  0
    5.4016   -3.0867   -0.0000 N   0  0  0  0  0  0  0  0  0  0  0  0
    6.7085   -3.0742   -0.0000 C   0  0  0  0  0  0  0  0  0  0  0  0
    4.9785   -4.3313   -0.0000 C   0  0  0  0  0  0  0  0  0  0  0  0
    7.3433   -1.9167   -0.0000 O   0  0  0  0  0  0  0  0  0  0  0  0
    7.0943   -4.3188   -0.0000 C   0  0  0  0  0  0  0  0  0  0  0  0
    3.7090   -4.7171   -0.0000 O   0  0  0  0  0  0  0  0  0  0  0  0
    6.0364   -5.1029   -0.0000 C   0  0  0  0  0  0  0  0  0  0  0  0
    8.4261   -4.0699   -0.0000 C   0  0  0  0  0  0  0  0  0  0  0  0
    7.5424   -5.0532   -0.0000 C   0  0  0  0  0  0  0  0  0  0  0  0
    8.7621   -2.6510   -0.0000 O   0  0  0  0  0  0  0  0  0  0  0  0
    9.3222   -5.3892   -0.0000 C   0  0  0  0  0  0  0  0  0  0  0  0
    8.4136   -6.1733   -0.0000 C   0  0  0  0  0  0  0  0  0  0  0  0
  1  2  1  0  0  0  0
  2  3  2  0  0  0  0
  2  4  1  0  0  0  0
  3  5  1  0  0  0  0
  3  6  1  0  0  0  0
  4  7  2  0  0  0  0
  5  8  2  0  0  0  0
  8  9  1  0  0  0  0
  9 10  1  0  0  0  0
  9 11  1  0  0  0  0
 10 12  2  0  0  0  0
 13 10  1  1  0  0  0
 11 14  2  0  0  0  0
 15 11  1  1  0  0  0
 13 16  1  0  0  0  0
 15 17  1  0  0  0  0
 16 18  1  0  0  0  0
 16 19  1  0  0  0  0
 17 20  1  0  0  0  0
  7  8  1  0  0  0  0
 13 15  1  0  0  0  0
 17 18  1  0  0  0  0
 19 20  1  0  0  0  0
M  END
>  <MolRegNo>
435837

>  <m>
=

>  <Value>
77

>  <Unit>
nM

>  <Type>
Ki

>  <pValue>
7.11

>  <Ligand Efficiency>
0.49

>  <Binding Efficiency>
24.38

>  <Surface Efficiency>
15.26

>  <Assay Index>
313568

>  <Assay Category>


>  <Assay Organism>
Homo sapiens

>  <Target ID>
56

>  <Target Name>
Androgen Receptor

>  <Target Organism>
Homo sapiens

>  <Target Description>
Target is a single protein chain

>  <Sequence Accession>
P10275

>  <Reference>
Bioorg Med Chem Lett 18 (6), 1910-1915 (2008)

>  <Pubmed ID>
18291644

>  <DOI>
10.1016/j.bmcl.2008.02.006

$$$$
435880
Actelion Java MolfileCreator 1.0

 20 23  0  0  1  0  0  0  0  0999 V2000
    0.0000   -0.0000   -0.0000 Cl  0  0  0  0  0  0  0  0  0  0  0  0
   -0.0124   -1.5545   -0.0000 C   0  0  0  0  0  0  0  0  0  0  0  0
   -1.3804   -2.3256   -0.0000 C   0  0  0  0  0  0  0  0  0  0  0  0
    1.3307   -2.3256   -0.0000 C   0  0  0  0  0  0  0  0  0  0  0  0
   -1.3929   -3.8926   -0.0000 C   0  0  0  0  0  0  0  0  0  0  0  0
   -2.7609   -1.5297   -0.0000 C   0  0  0  0  0  0  0  0  0  0  0  0
    1.3307   -3.8926   -0.0000 C   0  0  0  0  0  0  0  0  0  0  0  0
   -0.0373   -4.6636   -0.0000 C   0  0  0  0  0  0  0  0  0  0  0  0
    2.6863   -4.6636   -0.0000 N   0  0  0  0  0  0  0  0  0  0  0  0
    3.9921   -4.6512   -0.0000 C   0  0  0  0  0  0  0  0  0  0  0  0
    2.2634   -5.9073   -0.0000 C   0  0  0  0  0  0  0  0  0  0  0  0
    4.6263   -3.4946   -0.0000 O   0  0  0  0  0  0  0  0  0  0  0  0
    4.3776   -5.8948   -0.0000 C   0  0  0  0  0  0  0  0  0  0  0  0
    0.9949   -6.2928   -0.0000 O   0  0  0  0  0  0  0  0  0  0  0  0
    3.3205   -6.6783   -0.0000 C   0  0  0  0  0  0  0  0  0  0  0  0
    5.7083   -5.6461   -0.0000 C   0  0  0  0  0  0  0  0  0  0  0  0
    4.8253   -6.6286   -0.0000 C   0  0  0  0  0  0  0  0  0  0  0  0
    6.0441   -4.2284   -0.0000 O   0  0  0  0  0  0  0  0  0  0  0  0
    6.6037   -6.9644   -0.0000 C   0  0  0  0  0  0  0  0  0  0  0  0
    5.6959   -7.7479   -0.0000 C   0  0  0  0  0  0  0  0  0  0  0  0
  1  2  1  0  0  0  0
  2  3  2  0  0  0  0
  2  4  1  0  0  0  0
  3  5  1  0  0  0  0
  3  6  1  0  0  0  0
  4  7  2  0  0  0  0
  5  8  2  0  0  0  0
  7  9  1  0  0  0  0
  9 10  1  0  0  0  0
  9 11  1  0  0  0  0
 10 12  2  0  0  0  0
 13 10  1  1  0  0  0
 11 14  2  0  0  0  0
 15 11  1  1  0  0  0
 13 16  1  0  0  0  0
 15 17  1  0  0  0  0
 16 18  1  0  0  0  0
 16 19  1  0  0  0  0
 17 20  1  0  0  0  0
  7  8  1  0  0  0  0
 13 15  1  0  0  0  0
 17 18  1  0  0  0  0
 19 20  1  0  0  0  0
M  END
>  <MolRegNo>
435880

>  <m>
=

>  <Value>
486

>  <Unit>
nM

>  <Type>
Ki

>  <pValue>
6.31

>  <Ligand Efficiency>
0.43

>  <Binding Efficiency>
21.64

>  <Surface Efficiency>
13.55

>  <Assay Index>
313568

>  <Assay Category>


>  <Assay Organism>
Homo sapiens

>  <Target ID>
56

>  <Target Name>
Androgen Receptor

>  <Target Organism>
Homo sapiens

>  <Target Description>
Target is a single protein chain

>  <Sequence Accession>
P10275

>  <Reference>
Bioorg Med Chem Lett 18 (6), 1910-1915 (2008)

>  <Pubmed ID>
18291644

>  <DOI>
10.1016/j.bmcl.2008.02.006

$$$$
435883
Actelion Java MolfileCreator 1.0

 20 23  0  0  1  0  0  0  0  0999 V2000
    0.0000   -0.0000   -0.0000 Cl  0  0  0  0  0  0  0  0  0  0  0  0
   -0.0124   -1.5550   -0.0000 C   0  0  0  0  0  0  0  0  0  0  0  0
   -1.3809   -2.3263   -0.0000 C   0  0  0  0  0  0  0  0  0  0  0  0
    1.3311   -2.3263   -0.0000 C   0  0  0  0  0  0  0  0  0  0  0  0
   -2.7493   -1.5301   -0.0000 Cl  0  0  0  0  0  0  0  0  0  0  0  0
   -1.3933   -3.8938   -0.0000 C   0  0  0  0  0  0  0  0  0  0  0  0
    1.3311   -3.8938   -0.0000 C   0  0  0  0  0  0  0  0  0  0  0  0
   -0.0373   -4.6651   -0.0000 C   0  0  0  0  0  0  0  0  0  0  0  0
    2.6871   -4.6651   -0.0000 N   0  0  0  0  0  0  0  0  0  0  0  0
    3.9933   -4.6526   -0.0000 C   0  0  0  0  0  0  0  0  0  0  0  0
    2.2641   -5.9091   -0.0000 C   0  0  0  0  0  0  0  0  0  0  0  0
    4.6278   -3.4957   -0.0000 O   0  0  0  0  0  0  0  0  0  0  0  0
    4.3790   -5.8967   -0.0000 C   0  0  0  0  0  0  0  0  0  0  0  0
    0.9952   -6.2948   -0.0000 O   0  0  0  0  0  0  0  0  0  0  0  0
    3.3215   -6.6804   -0.0000 C   0  0  0  0  0  0  0  0  0  0  0  0
    5.7101   -5.6479   -0.0000 C   0  0  0  0  0  0  0  0  0  0  0  0
    4.8268   -6.6306   -0.0000 C   0  0  0  0  0  0  0  0  0  0  0  0
    6.0460   -4.2297   -0.0000 O   0  0  0  0  0  0  0  0  0  0  0  0
    6.6058   -6.9665   -0.0000 C   0  0  0  0  0  0  0  0  0  0  0  0
    5.6976   -7.7503   -0.0000 C   0  0  0  0  0  0  0  0  0  0  0  0
  1  2  1  0  0  0  0
  2  3  2  0  0  0  0
  2  4  1  0  0  0  0
  3  5  1  0  0  0  0
  3  6  1  0  0  0  0
  4  7  2  0  0  0  0
  6  8  2  0  0  0  0
  7  9  1  0  0  0  0
  9 10  1  0  0  0  0
  9 11  1  0  0  0  0
 10 12  2  0  0  0  0
 13 10  1  1  0  0  0
 11 14  2  0  0  0  0
 15 11  1  1  0  0  0
 13 16  1  0  0  0  0
 15 17  1  0  0  0  0
 16 18  1  0  0  0  0
 16 19  1  0  0  0  0
 17 20  1  0  0  0  0
  7  8  1  0  0  0  0
 13 15  1  0  0  0  0
 17 18  1  0  0  0  0
 19 20  1  0  0  0  0
M  END
>  <MolRegNo>
435883

>  <m>
=

>  <Value>
377

>  <Unit>
nM

>  <Type>
Ki

>  <pValue>
6.42

>  <Ligand Efficiency>
0.44

>  <Binding Efficiency>
20.58

>  <Surface Efficiency>
13.78

>  <Assay Index>
313568

>  <Assay Category>


>  <Assay Organism>
Homo sapiens

>  <Target ID>
56

>  <Target Name>
Androgen Receptor

>  <Target Organism>
Homo sapiens

>  <Target Description>
Target is a single protein chain

>  <Sequence Accession>
P10275

>  <Reference>
Bioorg Med Chem Lett 18 (6), 1910-1915 (2008)

>  <Pubmed ID>
18291644

>  <DOI>
10.1016/j.bmcl.2008.02.006

$$$$
435930
Actelion Java MolfileCreator 1.0

 20 23  0  0  1  0  0  0  0  0999 V2000
    0.0000   -0.0000   -0.0000 I   0  0  0  0  0  0  0  0  0  0  0  0
    1.3566   -0.7717   -0.0000 C   0  0  0  0  0  0  0  0  0  0  0  0
    2.7008    0.0249   -0.0000 C   0  0  0  0  0  0  0  0  0  0  0  0
    1.3442   -2.3399   -0.0000 C   0  0  0  0  0  0  0  0  0  0  0  0
    2.6884    1.6056   -0.0000 Cl  0  0  0  0  0  0  0  0  0  0  0  0
    4.0450   -0.7468   -0.0000 C   0  0  0  0  0  0  0  0  0  0  0  0
    2.7008   -3.1115   -0.0000 C   0  0  0  0  0  0  0  0  0  0  0  0
    4.0450   -2.3150   -0.0000 C   0  0  0  0  0  0  0  0  0  0  0  0
    5.4016   -3.0867   -0.0000 N   0  0  0  0  0  0  0  0  0  0  0  0
    6.7085   -3.0742   -0.0000 C   0  0  0  0  0  0  0  0  0  0  0  0
    4.9785   -4.3313   -0.0000 C   0  0  0  0  0  0  0  0  0  0  0  0
    7.3433   -1.9167   -0.0000 O   0  0  0  0  0  0  0  0  0  0  0  0
    7.0943   -4.3188   -0.0000 C   0  0  0  0  0  0  0  0  0  0  0  0
    3.7090   -4.7171   -0.0000 O   0  0  0  0  0  0  0  0  0  0  0  0
    6.0364   -5.1029   -0.0000 C   0  0  0  0  0  0  0  0  0  0  0  0
    8.4261   -4.0699   -0.0000 C   0  0  0  0  0  0  0  0  0  0  0  0
    7.5424   -5.0532   -0.0000 C   0  0  0  0  0  0  0  0  0  0  0  0
    8.7621   -2.6510   -0.0000 O   0  0  0  0  0  0  0  0  0  0  0  0
    9.3222   -5.3892   -0.0000 C   0  0  0  0  0  0  0  0  0  0  0  0
    8.4136   -6.1733   -0.0000 C   0  0  0  0  0  0  0  0  0  0  0  0
  1  2  1  0  0  0  0
  2  3  2  0  0  0  0
  2  4  1  0  0  0  0
  3  5  1  0  0  0  0
  3  6  1  0  0  0  0
  4  7  2  0  0  0  0
  6  8  2  0  0  0  0
  8  9  1  0  0  0  0
  9 10  1  0  0  0  0
  9 11  1  0  0  0  0
 10 12  2  0  0  0  0
 13 10  1  1  0  0  0
 11 14  2  0  0  0  0
 15 11  1  1  0  0  0
 13 16  1  0  0  0  0
 15 17  1  0  0  0  0
 16 18  1  0  0  0  0
 16 19  1  0  0  0  0
 17 20  1  0  0  0  0
  7  8  1  0  0  0  0
 13 15  1  0  0  0  0
 17 18  1  0  0  0  0
 19 20  1  0  0  0  0
M  END
>  <MolRegNo>
435930

>  <m>
=

>  <Value>
221

>  <Unit>
nM

>  <Type>
Ki

>  <pValue>
6.66

>  <Ligand Efficiency>
0.45

>  <Binding Efficiency>
16.49

>  <Surface Efficiency>
14.28

>  <Assay Index>
313568

>  <Assay Category>


>  <Assay Organism>
Homo sapiens

>  <Target ID>
56

>  <Target Name>
Androgen Receptor

>  <Target Organism>
Homo sapiens

>  <Target Description>
Target is a single protein chain

>  <Sequence Accession>
P10275

>  <Reference>
Bioorg Med Chem Lett 18 (6), 1910-1915 (2008)

>  <Pubmed ID>
18291644

>  <DOI>
10.1016/j.bmcl.2008.02.006

$$$$
436027
Actelion Java MolfileCreator 1.0

 23 27  0  0  1  0  0  0  0  0999 V2000
    0.0000   -0.0000   -0.0000 Br  0  0  0  0  0  0  0  0  0  0  0  0
    1.3367   -0.7674   -0.0000 C   0  0  0  0  0  0  0  0  0  0  0  0
    2.6734    0.0248   -0.0000 C   0  0  0  0  0  0  0  0  0  0  0  0
    1.3243   -2.3269   -0.0000 C   0  0  0  0  0  0  0  0  0  0  0  0
    4.0102   -0.7426   -0.0000 C   0  0  0  0  0  0  0  0  0  0  0  0
    2.6611    1.5843   -0.0000 C   0  0  0  0  0  0  0  0  0  0  0  0
    2.6734   -3.0943   -0.0000 C   0  0  0  0  0  0  0  0  0  0  0  0
    4.0102   -2.3021   -0.0000 C   0  0  0  0  0  0  0  0  0  0  0  0
    5.3469    0.0495   -0.0000 C   0  0  0  0  0  0  0  0  0  0  0  0
    3.9854    2.3764   -0.0000 C   0  0  0  0  0  0  0  0  0  0  0  0
    5.3592   -3.0695   -0.0000 N   0  0  0  0  0  0  0  0  0  0  0  0
    5.3345    1.6214   -0.0000 C   0  0  0  0  0  0  0  0  0  0  0  0
    6.6588   -3.0571   -0.0000 C   0  0  0  0  0  0  0  0  0  0  0  0
    4.9384   -4.3072   -0.0000 C   0  0  0  0  0  0  0  0  0  0  0  0
    7.2901   -1.9061   -0.0000 O   0  0  0  0  0  0  0  0  0  0  0  0
    7.0425   -4.2948   -0.0000 C   0  0  0  0  0  0  0  0  0  0  0  0
    3.6760   -4.6909   -0.0000 O   0  0  0  0  0  0  0  0  0  0  0  0
    5.9905   -5.0746   -0.0000 C   0  0  0  0  0  0  0  0  0  0  0  0
    8.3669   -4.0473   -0.0000 C   0  0  0  0  0  0  0  0  0  0  0  0
    7.4881   -5.0251   -0.0000 C   0  0  0  0  0  0  0  0  0  0  0  0
    8.7010   -2.6363   -0.0000 O   0  0  0  0  0  0  0  0  0  0  0  0
    9.2580   -5.3592   -0.0000 C   0  0  0  0  0  0  0  0  0  0  0  0
    8.3545   -6.1390   -0.0000 C   0  0  0  0  0  0  0  0  0  0  0  0
  1  2  1  0  0  0  0
  2  3  1  0  0  0  0
  2  4  2  0  0  0  0
  3  5  1  0  0  0  0
  3  6  2  0  0  0  0
  4  7  1  0  0  0  0
  5  8  1  0  0  0  0
  5  9  2  0  0  0  0
  6 10  1  0  0  0  0
  8 11  1  0  0  0  0
  9 12  1  0  0  0  0
 11 13  1  0  0  0  0
 11 14  1  0  0  0  0
 13 15  2  0  0  0  0
 16 13  1  1  0  0  0
 14 17  2  0  0  0  0
 18 14  1  1  0  0  0
 16 19  1  0  0  0  0
 18 20  1  0  0  0  0
 19 21  1  0  0  0  0
 19 22  1  0  0  0  0
 20 23  1  0  0  0  0
  7  8  2  0  0  0  0
 10 12  2  0  0  0  0
 16 18  1  0  0  0  0
 20 21  1  0  0  0  0
 22 23  1  0  0  0  0
M  END
>  <MolRegNo>
436027

>  <m>
=

>  <Value>
53

>  <Unit>
nM

>  <Type>
Ki

>  <pValue>
7.28

>  <Ligand Efficiency>
0.43

>  <Binding Efficiency>
19.55

>  <Surface Efficiency>
15.61

>  <Assay Index>
313568

>  <Assay Category>


>  <Assay Organism>
Homo sapiens

>  <Target ID>
56

>  <Target Name>
Androgen Receptor

>  <Target Organism>
Homo sapiens

>  <Target Description>
Target is a single protein chain

>  <Sequence Accession>
P10275

>  <Reference>
Bioorg Med Chem Lett 18 (6), 1910-1915 (2008)

>  <Pubmed ID>
18291644

>  <DOI>
10.1016/j.bmcl.2008.02.006

$$$$
436078
Actelion Java MolfileCreator 1.0

 25 29  0  0  1  0  0  0  0  0999 V2000
    0.0000   -0.0000   -0.0000 O   0  0  0  0  0  0  0  0  0  0  0  0
    0.7964    1.3356   -0.0000 N   0  0  0  0  0  0  0  0  0  0  0  0
    0.0368    2.7201   -0.0000 O   0  0  0  0  0  0  0  0  0  0  0  0
    2.3403    1.3110   -0.0000 C   0  0  0  0  0  0  0  0  0  0  0  0
    3.1367    2.6466   -0.0000 C   0  0  0  0  0  0  0  0  0  0  0  0
    3.0754   -0.0490   -0.0000 C   0  0  0  0  0  0  0  0  0  0  0  0
    4.6683    2.6221   -0.0000 C   0  0  0  0  0  0  0  0  0  0  0  0
    2.3893    4.0067   -0.0000 C   0  0  0  0  0  0  0  0  0  0  0  0
    4.6193   -0.0735   -0.0000 C   0  0  0  0  0  0  0  0  0  0  0  0
    5.4157    1.2620   -0.0000 C   0  0  0  0  0  0  0  0  0  0  0  0
    5.4647    3.9576   -0.0000 C   0  0  0  0  0  0  0  0  0  0  0  0
    3.1735    5.3422   -0.0000 C   0  0  0  0  0  0  0  0  0  0  0  0
    6.9596    1.2375   -0.0000 N   0  0  0  0  0  0  0  0  0  0  0  0
    4.7173    5.3300   -0.0000 C   0  0  0  0  0  0  0  0  0  0  0  0
    8.0991    1.8624   -0.0000 C   0  0  0  0  0  0  0  0  0  0  0  0
    7.1801   -0.0368   -0.0000 C   0  0  0  0  0  0  0  0  0  0  0  0
    8.1113    3.1857   -0.0000 O   0  0  0  0  0  0  0  0  0  0  0  0
    9.0303    0.9680   -0.0000 C   0  0  0  0  0  0  0  0  0  0  0  0
    6.2612   -0.9680   -0.0000 O   0  0  0  0  0  0  0  0  0  0  0  0
    8.4667   -0.1960   -0.0000 C   0  0  0  0  0  0  0  0  0  0  0  0
   10.0840    1.8257   -0.0000 C   0  0  0  0  0  0  0  0  0  0  0  0
    9.7532    0.5636   -0.0000 C   0  0  0  0  0  0  0  0  0  0  0  0
    9.7164    3.2225   -0.0000 O   0  0  0  0  0  0  0  0  0  0  0  0
   11.4931    1.1150   -0.0000 C   0  0  0  0  0  0  0  0  0  0  0  0
   11.0397    0.0123   -0.0000 C   0  0  0  0  0  0  0  0  0  0  0  0
  1  2  2  0  0  0  0
  2  3  1  0  0  0  0
  2  4  1  0  0  0  0
  4  5  1  0  0  0  0
  4  6  2  0  0  0  0
  5  7  1  0  0  0  0
  5  8  2  0  0  0  0
  6  9  1  0  0  0  0
  7 10  1  0  0  0  0
  7 11  2  0  0  0  0
  8 12  1  0  0  0  0
 10 13  1  0  0  0  0
 11 14  1  0  0  0  0
 13 15  1  0  0  0  0
 13 16  1  0  0  0  0
 15 17  2  0  0  0  0
 18 15  1  1  0  0  0
 16 19  2  0  0  0  0
 20 16  1  1  0  0  0
 18 21  1  0  0  0  0
 20 22  1  0  0  0  0
 21 23  1  0  0  0  0
 21 24  1  0  0  0  0
 22 25  1  0  0  0  0
  9 10  2  0  0  0  0
 12 14  2  0  0  0  0
 18 20  1  0  0  0  0
 22 23  1  0  0  0  0
 24 25  1  0  0  0  0
M  CHG  2   2   1   3  -1
M  END
>  <MolRegNo>
436078

>  <m>
=

>  <Value>
3

>  <Unit>
nM

>  <Type>
Ki

>  <pValue>
8.52

>  <Ligand Efficiency>
0.47

>  <Binding Efficiency>
25.19

>  <Surface Efficiency>
9.5

>  <Assay Index>
313568

>  <Assay Category>


>  <Assay Organism>
Homo sapiens

>  <Target ID>
56

>  <Target Name>
Androgen Receptor

>  <Target Organism>
Homo sapiens

>  <Target Description>
Target is a single protein chain

>  <Sequence Accession>
P10275

>  <Reference>
Bioorg Med Chem Lett 18 (6), 1910-1915 (2008)

>  <Pubmed ID>
18291644

>  <DOI>
10.1016/j.bmcl.2008.02.006

$$$$
435752
Actelion Java MolfileCreator 1.0

 31 34  0  0  1  0  0  0  0  0999 V2000
    0.0000   -0.0000   -0.0000 F   0  0  0  0  0  0  0  0  0  0  0  0
   -1.3978   -0.7957   -0.0000 C   0  0  0  0  0  0  0  0  0  0  0  0
   -0.6021   -2.1504   -0.0000 F   0  0  0  0  0  0  0  0  0  0  0  0
   -2.2365    0.6021   -0.0000 F   0  0  0  0  0  0  0  0  0  0  0  0
   -2.7956   -1.5913   -0.0000 C   0  0  0  0  0  0  0  0  0  0  0  0
   -2.8171   -3.1827   -0.0000 C   0  0  0  0  0  0  0  0  0  0  0  0
   -4.2149   -0.7742   -0.0000 C   0  0  0  0  0  0  0  0  0  0  0  0
   -1.4408   -3.9568   -0.0000 C   0  0  0  0  0  0  0  0  0  0  0  0
   -4.2364   -3.9568   -0.0000 C   0  0  0  0  0  0  0  0  0  0  0  0
   -5.6127   -1.5483   -0.0000 C   0  0  0  0  0  0  0  0  0  0  0  0
   -0.0645   -4.7310   -0.0000 N   0  0  0  0  0  0  0  0  0  0  0  0
   -5.6557   -3.1396   -0.0000 C   0  0  0  0  0  0  0  0  0  0  0  0
   -6.9459   -0.4731   -0.0000 N   0  0  0  0  0  0  0  0  0  0  0  0
   -7.9566   -1.1612   -0.0000 C   0  0  0  0  0  0  0  0  0  0  0  0
   -7.3545    0.7096   -0.0000 C   0  0  0  0  0  0  0  0  0  0  0  0
   -7.9781   -2.3655   -0.0000 O   0  0  0  0  0  0  0  0  0  0  0  0
   -8.9673   -0.4301   -0.0000 N   0  0  0  0  0  0  0  0  0  0  0  0
   -6.6664    1.7204   -0.0000 O   0  0  0  0  0  0  0  0  0  0  0  0
   -8.6018    0.7311   -0.0000 C   0  0  0  0  0  0  0  0  0  0  0  0
  -10.3651    0.0645   -0.0000 C   0  0  0  0  0  0  0  0  0  0  0  0
  -10.1286    1.3978   -0.0000 C   0  0  0  0  0  0  0  0  0  0  0  0
  -11.6769   -0.7742   -0.0000 C   0  0  0  0  0  0  0  0  0  0  0  0
  -10.6232    2.8171   -0.0000 C   0  0  0  0  0  0  0  0  0  0  0  0
  -11.0533    0.9032   -0.0000 N   0  0  0  0  0  0  0  0  0  0  0  0
  -12.1070    1.8709   -0.0000 C   0  0  0  0  0  0  0  0  0  0  0  0
  -12.1070    3.2257   -0.0000 O   0  0  0  0  0  0  0  0  0  0  0  0
  -13.3112    1.2473   -0.0000 O   0  0  0  0  0  0  0  0  0  0  0  0
  -14.4725    1.9569   -0.0000 C   0  0  0  0  0  0  0  0  0  0  0  0
  -15.6122    2.7526   -0.0000 C   0  0  0  0  0  0  0  0  0  0  0  0
  -15.2251    0.8387   -0.0000 C   0  0  0  0  0  0  0  0  0  0  0  0
  -13.7413    3.1181   -0.0000 C   0  0  0  0  0  0  0  0  0  0  0  0
  1  2  1  0  0  0  0
  2  3  1  0  0  0  0
  2  4  1  0  0  0  0
  2  5  1  0  0  0  0
  5  6  2  0  0  0  0
  5  7  1  0  0  0  0
  6  8  1  0  0  0  0
  6  9  1  0  0  0  0
  7 10  2  0  0  0  0
  8 11  3  0  0  0  0
  9 12  2  0  0  0  0
 10 13  1  0  0  0  0
 13 14  1  0  0  0  0
 13 15  1  0  0  0  0
 14 16  2  0  0  0  0
 14 17  1  0  0  0  0
 15 18  2  0  0  0  0
 15 19  1  0  0  0  0
 17 20  1  0  0  0  0
 19 21  1  0  0  0  0
 20 22  1  0  0  0  0
 20 23  1  0  0  0  0
 21 24  1  0  0  0  0
 24 25  1  0  0  0  0
 25 26  2  0  0  0  0
 25 27  1  0  0  0  0
 27 28  1  0  0  0  0
 28 29  1  0  0  0  0
 28 30  1  0  0  0  0
 28 31  1  0  0  0  0
 10 12  1  0  0  0  0
 19 17  1  6  0  0  0
 21 23  1  0  0  0  0
 22 24  1  0  0  0  0
M  END
>  <MolRegNo>
435752

>  <m>
=

>  <Value>
40

>  <Unit>
nM

>  <Type>
Ki

>  <pValue>
7.4

>  <Ligand Efficiency>
0.33

>  <Binding Efficiency>
16.95

>  <Surface Efficiency>
7.87

>  <Assay Index>
313568

>  <Assay Category>


>  <Assay Organism>
Homo sapiens

>  <Target ID>
56

>  <Target Name>
Androgen Receptor

>  <Target Organism>
Homo sapiens

>  <Target Description>
Target is a single protein chain

>  <Sequence Accession>
P10275

>  <Reference>
Bioorg Med Chem Lett 18 (6), 1910-1915 (2008)

>  <Pubmed ID>
18291644

>  <DOI>
10.1016/j.bmcl.2008.02.006

$$$$
435751
Actelion Java MolfileCreator 1.0

 22 25  0  0  1  0  0  0  0  0999 V2000
    0.0000   -0.0000   -0.0000 F   0  0  0  0  0  0  0  0  0  0  0  0
    0.7834   -1.3492   -0.0000 C   0  0  0  0  0  0  0  0  0  0  0  0
    2.0674   -0.4570   -0.0000 F   0  0  0  0  0  0  0  0  0  0  0  0
    1.5669   -2.6985   -0.0000 F   0  0  0  0  0  0  0  0  0  0  0  0
   -0.5440   -2.1762   -0.0000 C   0  0  0  0  0  0  0  0  0  0  0  0
   -1.9151   -1.3928   -0.0000 C   0  0  0  0  0  0  0  0  0  0  0  0
   -0.5440   -3.7866   -0.0000 C   0  0  0  0  0  0  0  0  0  0  0  0
   -3.2425   -2.2197   -0.0000 C   0  0  0  0  0  0  0  0  0  0  0  0
   -1.8715   -4.6135   -0.0000 C   0  0  0  0  0  0  0  0  0  0  0  0
   -4.6788   -1.5886   -0.0000 N   0  0  0  0  0  0  0  0  0  0  0  0
   -3.2425   -3.8301   -0.0000 C   0  0  0  0  0  0  0  0  0  0  0  0
   -5.6364   -2.3068   -0.0000 C   0  0  0  0  0  0  0  0  0  0  0  0
   -5.0705   -0.3917   -0.0000 C   0  0  0  0  0  0  0  0  0  0  0  0
   -5.6581   -3.5254   -0.0000 O   0  0  0  0  0  0  0  0  0  0  0  0
   -6.6156   -1.5669   -0.0000 N   0  0  0  0  0  0  0  0  0  0  0  0
   -4.4177    0.6311   -0.0000 O   0  0  0  0  0  0  0  0  0  0  0  0
   -6.2674   -0.3700   -0.0000 C   0  0  0  0  0  0  0  0  0  0  0  0
   -7.9649   -1.0663   -0.0000 C   0  0  0  0  0  0  0  0  0  0  0  0
   -7.7473    0.2829   -0.0000 C   0  0  0  0  0  0  0  0  0  0  0  0
   -8.2260    1.7192   -0.0000 C   0  0  0  0  0  0  0  0  0  0  0  0
   -9.2053   -1.9368   -0.0000 C   0  0  0  0  0  0  0  0  0  0  0  0
   -8.7483   -0.6529   -0.0000 C   0  0  0  0  0  0  0  0  0  0  0  0
  1  2  1  0  0  0  0
  2  3  1  0  0  0  0
  2  4  1  0  0  0  0
  2  5  1  0  0  0  0
  5  6  2  0  0  0  0
  5  7  1  0  0  0  0
  6  8  1  0  0  0  0
  7  9  2  0  0  0  0
  8 10  1  0  0  0  0
  8 11  2  0  0  0  0
 10 12  1  0  0  0  0
 10 13  1  0  0  0  0
 12 14  2  0  0  0  0
 12 15  1  0  0  0  0
 13 16  2  0  0  0  0
 13 17  1  0  0  0  0
 15 18  1  0  0  0  0
 17 19  1  0  0  0  0
 18 20  1  0  0  0  0
 18 21  1  0  0  0  0
 19 22  1  0  0  0  0
  9 11  1  0  0  0  0
 17 15  1  6  0  0  0
 19 20  1  0  0  0  0
 21 22  1  0  0  0  0
M  END
>  <MolRegNo>
435751

>  <m>
=

>  <Value>
21

>  <Unit>
nM

>  <Type>
Ki

>  <pValue>
7.68

>  <Ligand Efficiency>
0.48

>  <Binding Efficiency>
24.75

>  <Surface Efficiency>
18.9

>  <Assay Index>
313568

>  <Assay Category>


>  <Assay Organism>
Homo sapiens

>  <Target ID>
56

>  <Target Name>
Androgen Receptor

>  <Target Organism>
Homo sapiens

>  <Target Description>
Target is a single protein chain

>  <Sequence Accession>
P10275

>  <Reference>
Bioorg Med Chem Lett 18 (6), 1910-1915 (2008)

>  <Pubmed ID>
18291644

>  <DOI>
10.1016/j.bmcl.2008.02.006

$$$$
428742
Actelion Java MolfileCreator 1.0

 33 37  0  0  0  0  0  0  0  0999 V2000
    0.0000   -0.0000   -0.0000 F   0  0  0  0  0  0  0  0  0  0  0  0
   -1.3099    0.7621   -0.0000 C   0  0  0  0  0  0  0  0  0  0  0  0
   -2.6198    0.0357   -0.0000 C   0  0  0  0  0  0  0  0  0  0  0  0
   -1.3218    2.2745   -0.0000 C   0  0  0  0  0  0  0  0  0  0  0  0
   -3.9178    0.7979   -0.0000 C   0  0  0  0  0  0  0  0  0  0  0  0
   -2.6317   -1.4528   -0.0000 C   0  0  0  0  0  0  0  0  0  0  0  0
   -2.6317    3.0366   -0.0000 C   0  0  0  0  0  0  0  0  0  0  0  0
   -0.0357    3.0366   -0.0000 C   0  0  0  0  0  0  0  0  0  0  0  0
   -3.9297    2.2983   -0.0000 C   0  0  0  0  0  0  0  0  0  0  0  0
   -3.9416   -2.1911   -0.0000 C   0  0  0  0  0  0  0  0  0  0  0  0
   -5.2635   -1.4171   -0.0000 O   0  0  0  0  0  0  0  0  0  0  0  0
   -3.9536   -3.6916   -0.0000 C   0  0  0  0  0  0  0  0  0  0  0  0
   -6.5734   -2.1673   -0.0000 C   0  0  0  0  0  0  0  0  0  0  0  0
   -2.6675   -4.4299   -0.0000 C   0  0  0  0  0  0  0  0  0  0  0  0
   -5.2754   -4.4299   -0.0000 C   0  0  0  0  0  0  0  0  0  0  0  0
   -6.5853   -3.6678   -0.0000 C   0  0  0  0  0  0  0  0  0  0  0  0
   -7.8833   -1.4171   -0.0000 C   0  0  0  0  0  0  0  0  0  0  0  0
   -2.6913   -5.9184   -0.0000 C   0  0  0  0  0  0  0  0  0  0  0  0
   -1.3814   -3.6678   -0.0000 C   0  0  0  0  0  0  0  0  0  0  0  0
   -5.2992   -5.9303   -0.0000 C   0  0  0  0  0  0  0  0  0  0  0  0
   -7.8952   -4.4061   -0.0000 C   0  0  0  0  0  0  0  0  0  0  0  0
   -9.1932   -2.1554   -0.0000 C   0  0  0  0  0  0  0  0  0  0  0  0
   -1.4171   -6.6567   -0.0000 N   0  0  0  0  0  0  0  0  0  0  0  0
   -4.0131   -6.6686   -0.0000 C   0  0  0  0  0  0  0  0  0  0  0  0
   -0.0953   -4.4180   -0.0000 C   0  0  0  0  0  0  0  0  0  0  0  0
   -1.3933   -2.1554   -0.0000 C   0  0  0  0  0  0  0  0  0  0  0  0
   -7.9071   -5.8946   -0.0000 O   0  0  0  0  0  0  0  0  0  0  0  0
   -9.2051   -3.6439   -0.0000 C   0  0  0  0  0  0  0  0  0  0  0  0
   -0.1191   -5.9065   -0.0000 C   0  0  0  0  0  0  0  0  0  0  0  0
   -9.2170   -6.6329   -0.0000 C   0  0  0  0  0  0  0  0  0  0  0  0
  -10.5150   -4.3823   -0.0000 O   0  0  0  0  0  0  0  0  0  0  0  0
    1.3099   -5.5016   -0.0000 C   0  0  0  0  0  0  0  0  0  0  0  0
    0.6073   -7.1807   -0.0000 C   0  0  0  0  0  0  0  0  0  0  0  0
  1  2  1  0  0  0  0
  2  3  2  0  0  0  0
  2  4  1  0  0  0  0
  3  5  1  0  0  0  0
  3  6  1  0  0  0  0
  4  7  2  0  0  0  0
  4  8  1  0  0  0  0
  5  9  2  0  0  0  0
  6 10  2  0  0  0  0
 10 11  1  0  0  0  0
 10 12  1  0  0  0  0
 11 13  1  0  0  0  0
 12 14  2  0  0  0  0
 12 15  1  0  0  0  0
 13 16  2  0  0  0  0
 13 17  1  0  0  0  0
 14 18  1  0  0  0  0
 14 19  1  0  0  0  0
 15 20  2  0  0  0  0
 16 21  1  0  0  0  0
 17 22  2  0  0  0  0
 18 23  1  0  0  0  0
 18 24  2  0  0  0  0
 19 25  2  0  0  0  0
 19 26  1  0  0  0  0
 21 27  1  0  0  0  0
 21 28  2  0  0  0  0
 23 29  1  0  0  0  0
 27 30  1  0  0  0  0
 28 31  1  0  0  0  0
 29 32  1  0  0  0  0
 29 33  1  0  0  0  0
  7  9  1  0  0  0  0
 15 16  1  0  0  0  0
 20 24  1  0  0  0  0
 22 28  1  0  0  0  0
 25 29  1  0  0  0  0
M  END
>  <MolRegNo>
428742

>  <m>
=

>  <Value>
910

>  <Unit>
nM

>  <Type>
Ki

>  <pValue>
6.04

>  <Ligand Efficiency>
0.25

>  <Binding Efficiency>
13.62

>  <Surface Efficiency>
11.91

>  <Assay Index>
327230

>  <Assay Category>


>  <Assay Organism>
Homo sapiens

>  <Target ID>
56

>  <Target Name>
Androgen Receptor

>  <Target Organism>
Homo sapiens

>  <Target Description>
Target is a single protein chain

>  <Sequence Accession>
P10275

>  <Reference>
Proc Natl Acad Sci U S A 104 (49), 19244-19249 (2007)

>  <Pubmed ID>
18032610

>  <DOI>
10.1073/pnas.0705517104

$$$$
426148
Actelion Java MolfileCreator 1.0

 24 27  0  0  0  0  0  0  0  0999 V2000
    0.0000   -0.0000   -0.0000 Cl  0  0  0  0  0  0  0  0  0  0  0  0
    0.0000   -1.4924   -0.0000 C   0  0  0  0  0  0  0  0  0  0  0  0
   -1.3013   -2.2326   -0.0000 C   0  0  0  0  0  0  0  0  0  0  0  0
    1.2894   -2.2206   -0.0000 C   0  0  0  0  0  0  0  0  0  0  0  0
   -2.6146   -1.4685   -0.0000 C   0  0  0  0  0  0  0  0  0  0  0  0
   -1.3133   -3.7249   -0.0000 C   0  0  0  0  0  0  0  0  0  0  0  0
    1.2775   -3.7249   -0.0000 C   0  0  0  0  0  0  0  0  0  0  0  0
    2.5788   -1.4446   -0.0000 C   0  0  0  0  0  0  0  0  0  0  0  0
   -2.6265    0.0478   -0.0000 C   0  0  0  0  0  0  0  0  0  0  0  0
   -3.9159   -2.2087   -0.0000 C   0  0  0  0  0  0  0  0  0  0  0  0
   -0.0239   -4.4651   -0.0000 C   0  0  0  0  0  0  0  0  0  0  0  0
    2.5668   -4.4651   -0.0000 N   0  0  0  0  0  0  0  0  0  0  0  0
    3.8801   -2.1967   -0.0000 C   0  0  0  0  0  0  0  0  0  0  0  0
    2.5668    0.0716   -0.0000 C   0  0  0  0  0  0  0  0  0  0  0  0
   -1.5282    1.0626   -0.0000 N   0  0  0  0  0  0  0  0  0  0  0  0
   -3.9279    0.7999   -0.0000 C   0  0  0  0  0  0  0  0  0  0  0  0
   -5.2292   -1.4565   -0.0000 C   0  0  0  0  0  0  0  0  0  0  0  0
   -0.0358   -5.9575   -0.0000 C   0  0  0  0  0  0  0  0  0  0  0  0
    3.8682   -3.7010   -0.0000 C   0  0  0  0  0  0  0  0  0  0  0  0
   -2.1490    2.4355   -0.0000 C   0  0  0  0  0  0  0  0  0  0  0  0
   -5.2411    0.0597   -0.0000 C   0  0  0  0  0  0  0  0  0  0  0  0
   -3.6294    2.2684   -0.0000 C   0  0  0  0  0  0  0  0  0  0  0  0
    4.2383   -5.1337   -0.0000 C   0  0  0  0  0  0  0  0  0  0  0  0
    5.3008   -3.2951   -0.0000 C   0  0  0  0  0  0  0  0  0  0  0  0
  1  2  1  0  0  0  0
  2  3  2  0  0  0  0
  2  4  1  0  0  0  0
  3  5  1  0  0  0  0
  3  6  1  0  0  0  0
  4  7  2  0  0  0  0
  4  8  1  0  0  0  0
  5  9  2  0  0  0  0
  5 10  1  0  0  0  0
  6 11  2  0  0  0  0
  7 12  1  0  0  0  0
  8 13  1  0  0  0  0
  8 14  1  0  0  0  0
  9 15  1  0  0  0  0
  9 16  1  0  0  0  0
 10 17  2  0  0  0  0
 11 18  1  0  0  0  0
 12 19  1  0  0  0  0
 15 20  1  0  0  0  0
 16 21  2  0  0  0  0
 16 22  1  0  0  0  0
 19 23  1  0  0  0  0
 19 24  1  0  0  0  0
  7 11  1  0  0  0  0
 13 19  1  0  0  0  0
 17 21  1  0  0  0  0
 20 22  2  0  0  0  0
M  END
>  <MolRegNo>
426148

>  <m>
=

>  <Value>
57

>  <Unit>
nM

>  <Type>
Ki

>  <pValue>
7.24

>  <Ligand Efficiency>
0.41

>  <Binding Efficiency>
21.38

>  <Surface Efficiency>
26.04

>  <Assay Index>
328397

>  <Assay Category>


>  <Assay Organism>


>  <Target ID>
56

>  <Target Name>
Androgen Receptor

>  <Target Organism>
Homo sapiens

>  <Target Description>
Target is a single protein chain

>  <Sequence Accession>
P10275

>  <Reference>
Bioorg Med Chem Lett 18 (12), 3504-3508 (2008)

>  <Pubmed ID>
18513967

>  <DOI>
10.1016/j.bmcl.2008.05.029

$$$$
426018
Actelion Java MolfileCreator 1.0

 26 29  0  0  0  0  0  0  0  0999 V2000
    0.0000   -0.0000   -0.0000 Cl  0  0  0  0  0  0  0  0  0  0  0  0
    0.0000   -1.4937   -0.0000 C   0  0  0  0  0  0  0  0  0  0  0  0
   -1.3025   -2.2346   -0.0000 C   0  0  0  0  0  0  0  0  0  0  0  0
    1.2905   -2.2226   -0.0000 C   0  0  0  0  0  0  0  0  0  0  0  0
   -2.6169   -1.4698   -0.0000 C   0  0  0  0  0  0  0  0  0  0  0  0
   -1.3144   -3.7283   -0.0000 C   0  0  0  0  0  0  0  0  0  0  0  0
    1.2786   -3.7283   -0.0000 C   0  0  0  0  0  0  0  0  0  0  0  0
    2.5811   -1.4459   -0.0000 C   0  0  0  0  0  0  0  0  0  0  0  0
   -2.6289    0.0478   -0.0000 C   0  0  0  0  0  0  0  0  0  0  0  0
   -3.9194   -2.2107   -0.0000 C   0  0  0  0  0  0  0  0  0  0  0  0
   -0.0239   -4.4691   -0.0000 C   0  0  0  0  0  0  0  0  0  0  0  0
    2.5691   -4.4691   -0.0000 N   0  0  0  0  0  0  0  0  0  0  0  0
    3.8836   -2.1987   -0.0000 C   0  0  0  0  0  0  0  0  0  0  0  0
    2.5691    0.0717   -0.0000 C   0  0  0  0  0  0  0  0  0  0  0  0
   -1.3383    0.8126   -0.0000 O   0  0  0  0  0  0  0  0  0  0  0  0
   -3.9314    0.8006   -0.0000 C   0  0  0  0  0  0  0  0  0  0  0  0
   -4.2301   -3.6566   -0.0000 N   0  0  0  0  0  0  0  0  0  0  0  0
   -5.2219   -1.4578   -0.0000 C   0  0  0  0  0  0  0  0  0  0  0  0
   -0.0358   -5.9628   -0.0000 C   0  0  0  0  0  0  0  0  0  0  0  0
    3.8716   -3.7044   -0.0000 C   0  0  0  0  0  0  0  0  0  0  0  0
   -1.3503    2.3302   -0.0000 C   0  0  0  0  0  0  0  0  0  0  0  0
   -5.2339    0.0597   -0.0000 C   0  0  0  0  0  0  0  0  0  0  0  0
   -5.7238   -3.8119   -0.0000 C   0  0  0  0  0  0  0  0  0  0  0  0
   -6.3333   -2.4497   -0.0000 C   0  0  0  0  0  0  0  0  0  0  0  0
    4.2421   -5.1383   -0.0000 C   0  0  0  0  0  0  0  0  0  0  0  0
    5.3056   -3.2981   -0.0000 C   0  0  0  0  0  0  0  0  0  0  0  0
  1  2  1  0  0  0  0
  2  3  2  0  0  0  0
  2  4  1  0  0  0  0
  3  5  1  0  0  0  0
  3  6  1  0  0  0  0
  4  7  2  0  0  0  0
  4  8  1  0  0  0  0
  5  9  2  0  0  0  0
  5 10  1  0  0  0  0
  6 11  2  0  0  0  0
  7 12  1  0  0  0  0
  8 13  1  0  0  0  0
  8 14  1  0  0  0  0
  9 15  1  0  0  0  0
  9 16  1  0  0  0  0
 10 17  1  0  0  0  0
 10 18  2  0  0  0  0
 11 19  1  0  0  0  0
 12 20  1  0  0  0  0
 15 21  1  0  0  0  0
 16 22  2  0  0  0  0
 17 23  1  0  0  0  0
 18 24  1  0  0  0  0
 20 25  1  0  0  0  0
 20 26  1  0  0  0  0
  7 11  1  0  0  0  0
 13 20  1  0  0  0  0
 18 22  1  0  0  0  0
 23 24  2  0  0  0  0
M  END
>  <MolRegNo>
426018

>  <m>
=

>  <Value>
1500

>  <Unit>
nM

>  <Type>
Ki

>  <pValue>
5.82

>  <Ligand Efficiency>
0.31

>  <Binding Efficiency>
15.79

>  <Surface Efficiency>
15.72

>  <Assay Index>
328397

>  <Assay Category>


>  <Assay Organism>


>  <Target ID>
56

>  <Target Name>
Androgen Receptor

>  <Target Organism>
Homo sapiens

>  <Target Description>
Target is a single protein chain

>  <Sequence Accession>
P10275

>  <Reference>
Bioorg Med Chem Lett 18 (12), 3504-3508 (2008)

>  <Pubmed ID>
18513967

>  <DOI>
10.1016/j.bmcl.2008.05.029

$$$$
426022
Actelion Java MolfileCreator 1.0

 26 29  0  0  0  0  0  0  0  0999 V2000
    0.0000   -0.0000   -0.0000 Cl  0  0  0  0  0  0  0  0  0  0  0  0
    0.0000   -1.4928   -0.0000 C   0  0  0  0  0  0  0  0  0  0  0  0
   -1.3017   -2.2332   -0.0000 C   0  0  0  0  0  0  0  0  0  0  0  0
    1.2898   -2.2212   -0.0000 C   0  0  0  0  0  0  0  0  0  0  0  0
   -2.6153   -1.4689   -0.0000 C   0  0  0  0  0  0  0  0  0  0  0  0
   -1.3136   -3.7260   -0.0000 C   0  0  0  0  0  0  0  0  0  0  0  0
    1.2778   -3.7260   -0.0000 C   0  0  0  0  0  0  0  0  0  0  0  0
    2.5795   -1.4450   -0.0000 C   0  0  0  0  0  0  0  0  0  0  0  0
   -3.9170   -2.2093   -0.0000 C   0  0  0  0  0  0  0  0  0  0  0  0
   -2.6273    0.0478   -0.0000 C   0  0  0  0  0  0  0  0  0  0  0  0
   -0.0239   -4.4664   -0.0000 C   0  0  0  0  0  0  0  0  0  0  0  0
    2.5676   -4.4664   -0.0000 N   0  0  0  0  0  0  0  0  0  0  0  0
    3.8812   -2.1974   -0.0000 C   0  0  0  0  0  0  0  0  0  0  0  0
    2.5676    0.0717   -0.0000 C   0  0  0  0  0  0  0  0  0  0  0  0
   -4.2275   -3.6543   -0.0000 N   0  0  0  0  0  0  0  0  0  0  0  0
   -5.2187   -1.4569   -0.0000 C   0  0  0  0  0  0  0  0  0  0  0  0
   -3.9290    0.8001   -0.0000 C   0  0  0  0  0  0  0  0  0  0  0  0
   -0.0358   -5.9592   -0.0000 C   0  0  0  0  0  0  0  0  0  0  0  0
    3.8693   -3.7021   -0.0000 C   0  0  0  0  0  0  0  0  0  0  0  0
   -5.7203   -3.8096   -0.0000 C   0  0  0  0  0  0  0  0  0  0  0  0
   -5.2307    0.0717   -0.0000 C   0  0  0  0  0  0  0  0  0  0  0  0
   -6.3294   -2.4482   -0.0000 C   0  0  0  0  0  0  0  0  0  0  0  0
   -3.9409    2.3168   -0.0000 F   0  0  0  0  0  0  0  0  0  0  0  0
    4.2395   -5.1351   -0.0000 C   0  0  0  0  0  0  0  0  0  0  0  0
    5.3023   -3.2960   -0.0000 C   0  0  0  0  0  0  0  0  0  0  0  0
   -6.5443    0.8360   -0.0000 F   0  0  0  0  0  0  0  0  0  0  0  0
  1  2  1  0  0  0  0
  2  3  2  0  0  0  0
  2  4  1  0  0  0  0
  3  5  1  0  0  0  0
  3  6  1  0  0  0  0
  4  7  2  0  0  0  0
  4  8  1  0  0  0  0
  5  9  2  0  0  0  0
  5 10  1  0  0  0  0
  6 11  2  0  0  0  0
  7 12  1  0  0  0  0
  8 13  1  0  0  0  0
  8 14  1  0  0  0  0
  9 15  1  0  0  0  0
  9 16  1  0  0  0  0
 10 17  2  0  0  0  0
 11 18  1  0  0  0  0
 12 19  1  0  0  0  0
 15 20  1  0  0  0  0
 16 21  2  0  0  0  0
 16 22  1  0  0  0  0
 17 23  1  0  0  0  0
 19 24  1  0  0  0  0
 19 25  1  0  0  0  0
 21 26  1  0  0  0  0
  7 11  1  0  0  0  0
 13 19  1  0  0  0  0
 17 21  1  0  0  0  0
 20 22  2  0  0  0  0
M  END
>  <MolRegNo>
426022

>  <m>
=

>  <Value>
50

>  <Unit>
nM

>  <Type>
Ki

>  <pValue>
7.3

>  <Ligand Efficiency>
0.38

>  <Binding Efficiency>
19.48

>  <Surface Efficiency>
26.24

>  <Assay Index>
328397

>  <Assay Category>


>  <Assay Organism>


>  <Target ID>
56

>  <Target Name>
Androgen Receptor

>  <Target Organism>
Homo sapiens

>  <Target Description>
Target is a single protein chain

>  <Sequence Accession>
P10275

>  <Reference>
Bioorg Med Chem Lett 18 (12), 3504-3508 (2008)

>  <Pubmed ID>
18513967

>  <DOI>
10.1016/j.bmcl.2008.05.029

$$$$
426066
Actelion Java MolfileCreator 1.0

 25 28  0  0  0  0  0  0  0  0999 V2000
    0.0000   -0.0000   -0.0000 Cl  0  0  0  0  0  0  0  0  0  0  0  0
    0.0000   -1.4934   -0.0000 C   0  0  0  0  0  0  0  0  0  0  0  0
   -1.3022   -2.2341   -0.0000 C   0  0  0  0  0  0  0  0  0  0  0  0
    1.2903   -2.2221   -0.0000 C   0  0  0  0  0  0  0  0  0  0  0  0
   -2.6164   -1.4695   -0.0000 C   0  0  0  0  0  0  0  0  0  0  0  0
   -1.3142   -3.7275   -0.0000 C   0  0  0  0  0  0  0  0  0  0  0  0
    1.2783   -3.7275   -0.0000 C   0  0  0  0  0  0  0  0  0  0  0  0
    2.5805   -1.4456   -0.0000 C   0  0  0  0  0  0  0  0  0  0  0  0
   -3.9186   -2.2102   -0.0000 C   0  0  0  0  0  0  0  0  0  0  0  0
   -2.6283    0.0478   -0.0000 C   0  0  0  0  0  0  0  0  0  0  0  0
   -0.0239   -4.4682   -0.0000 C   0  0  0  0  0  0  0  0  0  0  0  0
    2.5686   -4.4682   -0.0000 N   0  0  0  0  0  0  0  0  0  0  0  0
    3.8828   -2.1982   -0.0000 C   0  0  0  0  0  0  0  0  0  0  0  0
    2.5686    0.0717   -0.0000 C   0  0  0  0  0  0  0  0  0  0  0  0
   -4.2292   -3.6558   -0.0000 N   0  0  0  0  0  0  0  0  0  0  0  0
   -5.2208   -1.4575   -0.0000 C   0  0  0  0  0  0  0  0  0  0  0  0
   -3.9305    0.8004   -0.0000 C   0  0  0  0  0  0  0  0  0  0  0  0
   -0.0358   -5.9615   -0.0000 C   0  0  0  0  0  0  0  0  0  0  0  0
    3.8708   -3.7036   -0.0000 C   0  0  0  0  0  0  0  0  0  0  0  0
   -5.7226   -3.8111   -0.0000 C   0  0  0  0  0  0  0  0  0  0  0  0
   -5.2328    0.0717   -0.0000 C   0  0  0  0  0  0  0  0  0  0  0  0
   -6.3319   -2.4491   -0.0000 C   0  0  0  0  0  0  0  0  0  0  0  0
    4.2412   -5.1372   -0.0000 C   0  0  0  0  0  0  0  0  0  0  0  0
    5.3044   -3.2974   -0.0000 C   0  0  0  0  0  0  0  0  0  0  0  0
   -6.5469    0.8363   -0.0000 F   0  0  0  0  0  0  0  0  0  0  0  0
  1  2  1  0  0  0  0
  2  3  2  0  0  0  0
  2  4  1  0  0  0  0
  3  5  1  0  0  0  0
  3  6  1  0  0  0  0
  4  7  2  0  0  0  0
  4  8  1  0  0  0  0
  5  9  2  0  0  0  0
  5 10  1  0  0  0  0
  6 11  2  0  0  0  0
  7 12  1  0  0  0  0
  8 13  1  0  0  0  0
  8 14  1  0  0  0  0
  9 15  1  0  0  0  0
  9 16  1  0  0  0  0
 10 17  2  0  0  0  0
 11 18  1  0  0  0  0
 12 19  1  0  0  0  0
 15 20  1  0  0  0  0
 16 21  2  0  0  0  0
 16 22  1  0  0  0  0
 19 23  1  0  0  0  0
 19 24  1  0  0  0  0
 21 25  1  0  0  0  0
  7 11  1  0  0  0  0
 13 19  1  0  0  0  0
 17 21  1  0  0  0  0
 20 22  2  0  0  0  0
M  END
>  <MolRegNo>
426066

>  <m>
=

>  <Value>
780

>  <Unit>
nM

>  <Type>
Ki

>  <pValue>
6.11

>  <Ligand Efficiency>
0.33

>  <Binding Efficiency>
17.12

>  <Surface Efficiency>
21.96

>  <Assay Index>
328397

>  <Assay Category>


>  <Assay Organism>


>  <Target ID>
56

>  <Target Name>
Androgen Receptor

>  <Target Organism>
Homo sapiens

>  <Target Description>
Target is a single protein chain

>  <Sequence Accession>
P10275

>  <Reference>
Bioorg Med Chem Lett 18 (12), 3504-3508 (2008)

>  <Pubmed ID>
18513967

>  <DOI>
10.1016/j.bmcl.2008.05.029

$$$$
468553
Actelion Java MolfileCreator 1.0

 30 33  0  0  0  0  0  0  0  0999 V2000
    0.0000   -0.0000   -0.0000 O   0  0  0  0  0  0  0  0  0  0  0  0
   -0.0120    1.5112   -0.0000 N   0  0  0  0  0  0  0  0  0  0  0  0
   -1.3313    2.2668   -0.0000 O   0  0  0  0  0  0  0  0  0  0  0  0
    1.2713    2.2788   -0.0000 C   0  0  0  0  0  0  0  0  0  0  0  0
    2.5546    1.5472   -0.0000 C   0  0  0  0  0  0  0  0  0  0  0  0
    1.2593    3.8020   -0.0000 C   0  0  0  0  0  0  0  0  0  0  0  0
    3.8379    2.3148   -0.0000 C   0  0  0  0  0  0  0  0  0  0  0  0
    2.5546    4.5695   -0.0000 C   0  0  0  0  0  0  0  0  0  0  0  0
    3.8259    3.8259   -0.0000 C   0  0  0  0  0  0  0  0  0  0  0  0
    5.1212    4.6055   -0.0000 N   0  0  0  0  0  0  0  0  0  0  0  0
    6.4285    3.8739   -0.0000 C   0  0  0  0  0  0  0  0  0  0  0  0
    5.0973    6.1167   -0.0000 C   0  0  0  0  0  0  0  0  0  0  0  0
    7.7119    4.6655   -0.0000 C   0  0  0  0  0  0  0  0  0  0  0  0
    6.4285    2.3747   -0.0000 C   0  0  0  0  0  0  0  0  0  0  0  0
    6.3806    6.8963   -0.0000 C   0  0  0  0  0  0  0  0  0  0  0  0
    9.0191    3.9459   -0.0000 C   0  0  0  0  0  0  0  0  0  0  0  0
    7.7358    1.6431   -0.0000 C   0  0  0  0  0  0  0  0  0  0  0  0
    7.6759    6.1647   -0.0000 C   0  0  0  0  0  0  0  0  0  0  0  0
    6.3446    8.3955   -0.0000 C   0  0  0  0  0  0  0  0  0  0  0  0
   10.2905    4.7255   -0.0000 C   0  0  0  0  0  0  0  0  0  0  0  0
    9.0311    2.4347   -0.0000 C   0  0  0  0  0  0  0  0  0  0  0  0
    8.9592    6.9443   -0.0000 C   0  0  0  0  0  0  0  0  0  0  0  0
    7.6159    9.1751   -0.0000 C   0  0  0  0  0  0  0  0  0  0  0  0
   10.2545    6.2366   -0.0000 O   0  0  0  0  0  0  0  0  0  0  0  0
   11.5858    4.0058   -0.0000 N   0  0  0  0  0  0  0  0  0  0  0  0
    8.9352    8.4555   -0.0000 C   0  0  0  0  0  0  0  0  0  0  0  0
   11.7537    2.5306   -0.0000 C   0  0  0  0  0  0  0  0  0  0  0  0
   12.9410    4.6535   -0.0000 C   0  0  0  0  0  0  0  0  0  0  0  0
   13.2169    2.2548   -0.0000 C   0  0  0  0  0  0  0  0  0  0  0  0
   13.9485    3.5621   -0.0000 C   0  0  0  0  0  0  0  0  0  0  0  0
  1  2  2  0  0  0  0
  2  3  1  0  0  0  0
  2  4  1  0  0  0  0
  4  5  2  0  0  0  0
  4  6  1  0  0  0  0
  5  7  1  0  0  0  0
  6  8  2  0  0  0  0
  7  9  2  0  0  0  0
  9 10  1  0  0  0  0
 10 11  1  0  0  0  0
 10 12  1  0  0  0  0
 11 13  2  0  0  0  0
 11 14  1  0  0  0  0
 12 15  1  0  0  0  0
 13 16  1  0  0  0  0
 14 17  2  0  0  0  0
 15 18  2  0  0  0  0
 15 19  1  0  0  0  0
 16 20  1  0  0  0  0
 16 21  2  0  0  0  0
 18 22  1  0  0  0  0
 19 23  2  0  0  0  0
 20 24  2  0  0  0  0
 20 25  1  0  0  0  0
 22 26  2  0  0  0  0
 25 27  1  0  0  0  0
 25 28  1  0  0  0  0
 27 29  1  0  0  0  0
 28 30  1  0  0  0  0
  8  9  1  0  0  0  0
 17 21  1  0  0  0  0
 23 26  1  0  0  0  0
 29 30  1  0  0  0  0
M  CHG  2   2   1   3  -1
M  END
>  <MolRegNo>
468553

>  <m>
=

>  <Value>
370

>  <Unit>
nM

>  <Type>
Ki

>  <pValue>
6.43

>  <Ligand Efficiency>
0.29

>  <Binding Efficiency>
16.02

>  <Surface Efficiency>
9.64

>  <Assay Index>
336391

>  <Assay Category>


>  <Assay Organism>
Homo sapiens

>  <Target ID>
56

>  <Target Name>
Androgen Receptor

>  <Target Organism>
Homo sapiens

>  <Target Description>
Target is a single protein chain

>  <Sequence Accession>
P10275

>  <Reference>
Bioorg Med Chem 16 (14), 6799-6812 (2008)

>  <Pubmed ID>
18571420

>  <DOI>
10.1016/j.bmc.2008.05.063

$$$$
468552
Actelion Java MolfileCreator 1.0

 30 33  0  0  0  0  0  0  0  0999 V2000
    0.0000   -0.0000   -0.0000 O   0  0  0  0  0  0  0  0  0  0  0  0
   -0.0119    1.5121   -0.0000 N   0  0  0  0  0  0  0  0  0  0  0  0
   -1.3216    2.2742   -0.0000 O   0  0  0  0  0  0  0  0  0  0  0  0
    1.2740    2.2861   -0.0000 C   0  0  0  0  0  0  0  0  0  0  0  0
    2.5599    1.5598   -0.0000 C   0  0  0  0  0  0  0  0  0  0  0  0
    1.2621    3.8101   -0.0000 C   0  0  0  0  0  0  0  0  0  0  0  0
    3.8458    2.3218   -0.0000 C   0  0  0  0  0  0  0  0  0  0  0  0
    2.5480    4.5721   -0.0000 C   0  0  0  0  0  0  0  0  0  0  0  0
    3.8339    3.8339   -0.0000 C   0  0  0  0  0  0  0  0  0  0  0  0
    5.1317    4.6197   -0.0000 N   0  0  0  0  0  0  0  0  0  0  0  0
    6.4414    3.8934   -0.0000 C   0  0  0  0  0  0  0  0  0  0  0  0
    5.1079    6.1319   -0.0000 C   0  0  0  0  0  0  0  0  0  0  0  0
    6.4414    2.3932   -0.0000 C   0  0  0  0  0  0  0  0  0  0  0  0
    7.7154    4.6793   -0.0000 C   0  0  0  0  0  0  0  0  0  0  0  0
    6.3819    6.9058   -0.0000 C   0  0  0  0  0  0  0  0  0  0  0  0
    7.7512    1.6669   -0.0000 C   0  0  0  0  0  0  0  0  0  0  0  0
    9.0252    3.9530   -0.0000 C   0  0  0  0  0  0  0  0  0  0  0  0
    7.6797    6.1676   -0.0000 C   0  0  0  0  0  0  0  0  0  0  0  0
    6.3462    8.4060   -0.0000 C   0  0  0  0  0  0  0  0  0  0  0  0
    9.0490    2.4527   -0.0000 C   0  0  0  0  0  0  0  0  0  0  0  0
    8.9537    6.9415   -0.0000 C   0  0  0  0  0  0  0  0  0  0  0  0
    7.6202    9.1799   -0.0000 C   0  0  0  0  0  0  0  0  0  0  0  0
   10.3468    1.7264   -0.0000 C   0  0  0  0  0  0  0  0  0  0  0  0
    8.9299    8.4537   -0.0000 C   0  0  0  0  0  0  0  0  0  0  0  0
   10.3587    0.2381   -0.0000 O   0  0  0  0  0  0  0  0  0  0  0  0
   11.6208    2.5004   -0.0000 N   0  0  0  0  0  0  0  0  0  0  0  0
   12.9900    1.9170   -0.0000 C   0  0  0  0  0  0  0  0  0  0  0  0
   11.7518    4.0125   -0.0000 C   0  0  0  0  0  0  0  0  0  0  0  0
   13.9664    3.0600   -0.0000 C   0  0  0  0  0  0  0  0  0  0  0  0
   13.2044    4.3578   -0.0000 C   0  0  0  0  0  0  0  0  0  0  0  0
  1  2  2  0  0  0  0
  2  3  1  0  0  0  0
  2  4  1  0  0  0  0
  4  5  2  0  0  0  0
  4  6  1  0  0  0  0
  5  7  1  0  0  0  0
  6  8  2  0  0  0  0
  7  9  2  0  0  0  0
  9 10  1  0  0  0  0
 10 11  1  0  0  0  0
 10 12  1  0  0  0  0
 11 13  2  0  0  0  0
 11 14  1  0  0  0  0
 12 15  1  0  0  0  0
 13 16  1  0  0  0  0
 14 17  2  0  0  0  0
 15 18  2  0  0  0  0
 15 19  1  0  0  0  0
 16 20  2  0  0  0  0
 18 21  1  0  0  0  0
 19 22  2  0  0  0  0
 20 23  1  0  0  0  0
 21 24  2  0  0  0  0
 23 25  2  0  0  0  0
 23 26  1  0  0  0  0
 26 27  1  0  0  0  0
 26 28  1  0  0  0  0
 27 29  1  0  0  0  0
 28 30  1  0  0  0  0
  8  9  1  0  0  0  0
 17 20  1  0  0  0  0
 22 24  1  0  0  0  0
 29 30  1  0  0  0  0
M  CHG  2   2   1   3  -1
M  END
>  <MolRegNo>
468552

>  <m>
=

>  <Value>
340

>  <Unit>
nM

>  <Type>
Ki

>  <pValue>
6.47

>  <Ligand Efficiency>
0.29

>  <Binding Efficiency>
16.11

>  <Surface Efficiency>
9.7

>  <Assay Index>
336391

>  <Assay Category>


>  <Assay Organism>
Homo sapiens

>  <Target ID>
56

>  <Target Name>
Androgen Receptor

>  <Target Organism>
Homo sapiens

>  <Target Description>
Target is a single protein chain

>  <Sequence Accession>
P10275

>  <Reference>
Bioorg Med Chem 16 (14), 6799-6812 (2008)

>  <Pubmed ID>
18571420

>  <DOI>
10.1016/j.bmc.2008.05.063

$$$$
468463
Actelion Java MolfileCreator 1.0

 31 34  0  0  0  0  0  0  0  0999 V2000
    0.0000   -0.0000   -0.0000 O   0  0  0  0  0  0  0  0  0  0  0  0
   -0.0119    1.5102   -0.0000 N   0  0  0  0  0  0  0  0  0  0  0  0
   -1.3200    2.2713   -0.0000 O   0  0  0  0  0  0  0  0  0  0  0  0
    1.2724    2.2832   -0.0000 C   0  0  0  0  0  0  0  0  0  0  0  0
    2.5567    1.5459   -0.0000 C   0  0  0  0  0  0  0  0  0  0  0  0
    1.2605    3.8053   -0.0000 C   0  0  0  0  0  0  0  0  0  0  0  0
    3.8409    2.3069   -0.0000 C   0  0  0  0  0  0  0  0  0  0  0  0
    2.5567    4.5663   -0.0000 C   0  0  0  0  0  0  0  0  0  0  0  0
    3.8290    3.8290   -0.0000 C   0  0  0  0  0  0  0  0  0  0  0  0
    5.1252    4.6139   -0.0000 N   0  0  0  0  0  0  0  0  0  0  0  0
    6.4333    3.8766   -0.0000 C   0  0  0  0  0  0  0  0  0  0  0  0
    5.1014    6.1241   -0.0000 C   0  0  0  0  0  0  0  0  0  0  0  0
    6.7543    2.4259   -0.0000 C   0  0  0  0  0  0  0  0  0  0  0  0
    7.7176    4.6496   -0.0000 C   0  0  0  0  0  0  0  0  0  0  0  0
    6.3857    6.8970   -0.0000 C   0  0  0  0  0  0  0  0  0  0  0  0
    8.2289    2.2951   -0.0000 N   0  0  0  0  0  0  0  0  0  0  0  0
    8.8353    3.6626   -0.0000 C   0  0  0  0  0  0  0  0  0  0  0  0
    7.6819    6.1598   -0.0000 C   0  0  0  0  0  0  0  0  0  0  0  0
    6.3500    8.3954   -0.0000 C   0  0  0  0  0  0  0  0  0  0  0  0
    8.9899    1.0108   -0.0000 C   0  0  0  0  0  0  0  0  0  0  0  0
   10.3337    3.7220   -0.0000 C   0  0  0  0  0  0  0  0  0  0  0  0
    8.9662    6.9327   -0.0000 C   0  0  0  0  0  0  0  0  0  0  0  0
    7.6224    9.1683   -0.0000 C   0  0  0  0  0  0  0  0  0  0  0  0
   11.0353    5.0658   -0.0000 O   0  0  0  0  0  0  0  0  0  0  0  0
   11.1185    2.4496   -0.0000 N   0  0  0  0  0  0  0  0  0  0  0  0
    8.9424    8.4429   -0.0000 C   0  0  0  0  0  0  0  0  0  0  0  0
   10.3812    1.1297   -0.0000 C   0  0  0  0  0  0  0  0  0  0  0  0
   12.6168    2.5091   -0.0000 C   0  0  0  0  0  0  0  0  0  0  0  0
   11.1542   -0.1427   -0.0000 C   0  0  0  0  0  0  0  0  0  0  0  0
   13.3898    1.2248   -0.0000 C   0  0  0  0  0  0  0  0  0  0  0  0
   12.6525   -0.0951   -0.0000 C   0  0  0  0  0  0  0  0  0  0  0  0
  1  2  2  0  0  0  0
  2  3  1  0  0  0  0
  2  4  1  0  0  0  0
  4  5  2  0  0  0  0
  4  6  1  0  0  0  0
  5  7  1  0  0  0  0
  6  8  2  0  0  0  0
  7  9  2  0  0  0  0
  9 10  1  0  0  0  0
 10 11  1  0  0  0  0
 10 12  1  0  0  0  0
 11 13  2  0  0  0  0
 11 14  1  0  0  0  0
 12 15  1  0  0  0  0
 13 16  1  0  0  0  0
 14 17  2  0  0  0  0
 15 18  2  0  0  0  0
 15 19  1  0  0  0  0
 16 20  1  0  0  0  0
 17 21  1  0  0  0  0
 18 22  1  0  0  0  0
 19 23  2  0  0  0  0
 21 24  2  0  0  0  0
 21 25  1  0  0  0  0
 22 26  2  0  0  0  0
 25 27  1  0  0  0  0
 25 28  1  0  0  0  0
 27 29  1  0  0  0  0
 28 30  1  0  0  0  0
 29 31  1  0  0  0  0
  8  9  1  0  0  0  0
 16 17  1  0  0  0  0
 23 26  1  0  0  0  0
 30 31  1  0  0  0  0
M  CHG  2   2   1   3  -1
M  END
>  <MolRegNo>
468463

>  <m>
=

>  <Value>
110

>  <Unit>
nM

>  <Type>
Ki

>  <pValue>
6.96

>  <Ligand Efficiency>
0.31

>  <Binding Efficiency>
16.63

>  <Surface Efficiency>
9.72

>  <Assay Index>
336391

>  <Assay Category>


>  <Assay Organism>
Homo sapiens

>  <Target ID>
56

>  <Target Name>
Androgen Receptor

>  <Target Organism>
Homo sapiens

>  <Target Description>
Target is a single protein chain

>  <Sequence Accession>
P10275

>  <Reference>
Bioorg Med Chem 16 (14), 6799-6812 (2008)

>  <Pubmed ID>
18571420

>  <DOI>
10.1016/j.bmc.2008.05.063

$$$$
468461
Actelion Java MolfileCreator 1.0

 30 32  0  0  0  0  0  0  0  0999 V2000
    0.0000   -0.0000   -0.0000 O   0  0  0  0  0  0  0  0  0  0  0  0
   -0.0119    1.5124   -0.0000 N   0  0  0  0  0  0  0  0  0  0  0  0
   -1.3219    2.2746   -0.0000 O   0  0  0  0  0  0  0  0  0  0  0  0
    1.2742    2.2865   -0.0000 C   0  0  0  0  0  0  0  0  0  0  0  0
    2.5604    1.5481   -0.0000 C   0  0  0  0  0  0  0  0  0  0  0  0
    1.2623    3.8108   -0.0000 C   0  0  0  0  0  0  0  0  0  0  0  0
    3.8465    2.3103   -0.0000 C   0  0  0  0  0  0  0  0  0  0  0  0
    2.5604    4.5729   -0.0000 C   0  0  0  0  0  0  0  0  0  0  0  0
    3.8346    3.8346   -0.0000 C   0  0  0  0  0  0  0  0  0  0  0  0
    5.1326    4.6206   -0.0000 N   0  0  0  0  0  0  0  0  0  0  0  0
    6.4426    3.8822   -0.0000 C   0  0  0  0  0  0  0  0  0  0  0  0
    5.1088    6.1330   -0.0000 C   0  0  0  0  0  0  0  0  0  0  0  0
    6.7641    2.4294   -0.0000 C   0  0  0  0  0  0  0  0  0  0  0  0
    7.7287    4.6563   -0.0000 C   0  0  0  0  0  0  0  0  0  0  0  0
    6.3950    6.9070   -0.0000 C   0  0  0  0  0  0  0  0  0  0  0  0
    8.2408    2.2984   -0.0000 N   0  0  0  0  0  0  0  0  0  0  0  0
    8.8482    3.6679   -0.0000 C   0  0  0  0  0  0  0  0  0  0  0  0
    7.6930    6.1687   -0.0000 C   0  0  0  0  0  0  0  0  0  0  0  0
    6.3592    8.4075   -0.0000 C   0  0  0  0  0  0  0  0  0  0  0  0
    9.0030    1.0122   -0.0000 C   0  0  0  0  0  0  0  0  0  0  0  0
   10.3487    3.7274   -0.0000 C   0  0  0  0  0  0  0  0  0  0  0  0
    8.9792    6.9428   -0.0000 C   0  0  0  0  0  0  0  0  0  0  0  0
    7.6335    9.1816   -0.0000 C   0  0  0  0  0  0  0  0  0  0  0  0
   11.0513    5.0731   -0.0000 O   0  0  0  0  0  0  0  0  0  0  0  0
   11.1346    2.4532   -0.0000 N   0  0  0  0  0  0  0  0  0  0  0  0
    8.9553    8.4552   -0.0000 C   0  0  0  0  0  0  0  0  0  0  0  0
   12.6232    2.5127   -0.0000 C   0  0  0  0  0  0  0  0  0  0  0  0
   10.4082    1.1432   -0.0000 C   0  0  0  0  0  0  0  0  0  0  0  0
   13.3973    1.2504   -0.0000 C   0  0  0  0  0  0  0  0  0  0  0  0
   11.1823   -0.1191   -0.0000 C   0  0  0  0  0  0  0  0  0  0  0  0
  1  2  2  0  0  0  0
  2  3  1  0  0  0  0
  2  4  1  0  0  0  0
  4  5  2  0  0  0  0
  4  6  1  0  0  0  0
  5  7  1  0  0  0  0
  6  8  2  0  0  0  0
  7  9  2  0  0  0  0
  9 10  1  0  0  0  0
 10 11  1  0  0  0  0
 10 12  1  0  0  0  0
 11 13  2  0  0  0  0
 11 14  1  0  0  0  0
 12 15  1  0  0  0  0
 13 16  1  0  0  0  0
 14 17  2  0  0  0  0
 15 18  2  0  0  0  0
 15 19  1  0  0  0  0
 16 20  1  0  0  0  0
 17 21  1  0  0  0  0
 18 22  1  0  0  0  0
 19 23  2  0  0  0  0
 21 24  2  0  0  0  0
 21 25  1  0  0  0  0
 22 26  2  0  0  0  0
 25 27  1  0  0  0  0
 25 28  1  0  0  0  0
 27 29  1  0  0  0  0
 28 30  1  0  0  0  0
  8  9  1  0  0  0  0
 16 17  1  0  0  0  0
 23 26  1  0  0  0  0
M  CHG  2   2   1   3  -1
M  END
>  <MolRegNo>
468461

>  <m>
=

>  <Value>
100

>  <Unit>
nM

>  <Type>
Ki

>  <pValue>
7

>  <Ligand Efficiency>
0.32

>  <Binding Efficiency>
17.22

>  <Surface Efficiency>
9.77

>  <Assay Index>
336391

>  <Assay Category>


>  <Assay Organism>
Homo sapiens

>  <Target ID>
56

>  <Target Name>
Androgen Receptor

>  <Target Organism>
Homo sapiens

>  <Target Description>
Target is a single protein chain

>  <Sequence Accession>
P10275

>  <Reference>
Bioorg Med Chem 16 (14), 6799-6812 (2008)

>  <Pubmed ID>
18571420

>  <DOI>
10.1016/j.bmc.2008.05.063

$$$$
468460
Actelion Java MolfileCreator 1.0

 26 28  0  0  0  0  0  0  0  0999 V2000
    0.0000   -0.0000   -0.0000 O   0  0  0  0  0  0  0  0  0  0  0  0
   -0.0119    1.5114   -0.0000 N   0  0  0  0  0  0  0  0  0  0  0  0
   -1.3329    2.2730   -0.0000 O   0  0  0  0  0  0  0  0  0  0  0  0
    1.2734    2.2849   -0.0000 C   0  0  0  0  0  0  0  0  0  0  0  0
    2.5586    1.5471   -0.0000 C   0  0  0  0  0  0  0  0  0  0  0  0
    1.2615    3.8082   -0.0000 C   0  0  0  0  0  0  0  0  0  0  0  0
    3.8439    2.3087   -0.0000 C   0  0  0  0  0  0  0  0  0  0  0  0
    2.5586    4.5698   -0.0000 C   0  0  0  0  0  0  0  0  0  0  0  0
    3.8320    3.8320   -0.0000 C   0  0  0  0  0  0  0  0  0  0  0  0
    5.1291    4.6174   -0.0000 N   0  0  0  0  0  0  0  0  0  0  0  0
    6.4382    3.8796   -0.0000 C   0  0  0  0  0  0  0  0  0  0  0  0
    5.1053    6.1288   -0.0000 C   0  0  0  0  0  0  0  0  0  0  0  0
    6.7595    2.4277   -0.0000 C   0  0  0  0  0  0  0  0  0  0  0  0
    7.7235    4.6531   -0.0000 C   0  0  0  0  0  0  0  0  0  0  0  0
    6.3906    6.9023   -0.0000 C   0  0  0  0  0  0  0  0  0  0  0  0
    8.2352    2.2968   -0.0000 N   0  0  0  0  0  0  0  0  0  0  0  0
    8.8421    3.6654   -0.0000 C   0  0  0  0  0  0  0  0  0  0  0  0
    7.6759    6.1764   -0.0000 C   0  0  0  0  0  0  0  0  0  0  0  0
    6.3549    8.4018   -0.0000 C   0  0  0  0  0  0  0  0  0  0  0  0
    8.9968    1.0115   -0.0000 C   0  0  0  0  0  0  0  0  0  0  0  0
   10.3416    3.7249   -0.0000 C   0  0  0  0  0  0  0  0  0  0  0  0
    8.9611    6.9499   -0.0000 C   0  0  0  0  0  0  0  0  0  0  0  0
    7.6283    9.1753   -0.0000 C   0  0  0  0  0  0  0  0  0  0  0  0
   11.0437    5.0696   -0.0000 O   0  0  0  0  0  0  0  0  0  0  0  0
   11.1270    2.4515   -0.0000 N   0  0  0  0  0  0  0  0  0  0  0  0
    8.9373    8.4613   -0.0000 C   0  0  0  0  0  0  0  0  0  0  0  0
  1  2  2  0  0  0  0
  2  3  1  0  0  0  0
  2  4  1  0  0  0  0
  4  5  2  0  0  0  0
  4  6  1  0  0  0  0
  5  7  1  0  0  0  0
  6  8  2  0  0  0  0
  7  9  2  0  0  0  0
  9 10  1  0  0  0  0
 10 11  1  0  0  0  0
 10 12  1  0  0  0  0
 11 13  2  0  0  0  0
 11 14  1  0  0  0  0
 12 15  1  0  0  0  0
 13 16  1  0  0  0  0
 14 17  2  0  0  0  0
 15 18  2  0  0  0  0
 15 19  1  0  0  0  0
 16 20  1  0  0  0  0
 17 21  1  0  0  0  0
 18 22  1  0  0  0  0
 19 23  2  0  0  0  0
 21 24  2  0  0  0  0
 21 25  1  0  0  0  0
 22 26  2  0  0  0  0
  8  9  1  0  0  0  0
 16 17  1  0  0  0  0
 23 26  1  0  0  0  0
M  CHG  2   2   1   3  -1
M  END
>  <MolRegNo>
468460

>  <m>
=

>  <Value>
220

>  <Unit>
nM

>  <Type>
Ki

>  <pValue>
6.66

>  <Ligand Efficiency>
0.35

>  <Binding Efficiency>
19

>  <Surface Efficiency>
7.05

>  <Assay Index>
336391

>  <Assay Category>


>  <Assay Organism>
Homo sapiens

>  <Target ID>
56

>  <Target Name>
Androgen Receptor

>  <Target Organism>
Homo sapiens

>  <Target Description>
Target is a single protein chain

>  <Sequence Accession>
P10275

>  <Reference>
Bioorg Med Chem 16 (14), 6799-6812 (2008)

>  <Pubmed ID>
18571420

>  <DOI>
10.1016/j.bmc.2008.05.063

$$$$
468385
Actelion Java MolfileCreator 1.0

 26 28  0  0  0  0  0  0  0  0999 V2000
    0.0000   -0.0000   -0.0000 O   0  0  0  0  0  0  0  0  0  0  0  0
   -0.0119    1.5114   -0.0000 N   0  0  0  0  0  0  0  0  0  0  0  0
   -1.3329    2.2730   -0.0000 O   0  0  0  0  0  0  0  0  0  0  0  0
    1.2734    2.2849   -0.0000 C   0  0  0  0  0  0  0  0  0  0  0  0
    2.5586    1.5471   -0.0000 C   0  0  0  0  0  0  0  0  0  0  0  0
    1.2615    3.8082   -0.0000 C   0  0  0  0  0  0  0  0  0  0  0  0
    3.8439    2.3087   -0.0000 C   0  0  0  0  0  0  0  0  0  0  0  0
    2.5586    4.5698   -0.0000 C   0  0  0  0  0  0  0  0  0  0  0  0
    3.8320    3.8320   -0.0000 C   0  0  0  0  0  0  0  0  0  0  0  0
    5.1291    4.6174   -0.0000 N   0  0  0  0  0  0  0  0  0  0  0  0
    6.4382    3.8796   -0.0000 C   0  0  0  0  0  0  0  0  0  0  0  0
    5.1053    6.1288   -0.0000 C   0  0  0  0  0  0  0  0  0  0  0  0
    6.7595    2.4277   -0.0000 C   0  0  0  0  0  0  0  0  0  0  0  0
    7.7235    4.6531   -0.0000 C   0  0  0  0  0  0  0  0  0  0  0  0
    6.3906    6.9023   -0.0000 C   0  0  0  0  0  0  0  0  0  0  0  0
    8.2352    2.2968   -0.0000 N   0  0  0  0  0  0  0  0  0  0  0  0
    8.8421    3.6654   -0.0000 C   0  0  0  0  0  0  0  0  0  0  0  0
    7.6759    6.1764   -0.0000 C   0  0  0  0  0  0  0  0  0  0  0  0
    6.3549    8.4018   -0.0000 C   0  0  0  0  0  0  0  0  0  0  0  0
    8.9968    1.0115   -0.0000 C   0  0  0  0  0  0  0  0  0  0  0  0
   10.3416    3.7249   -0.0000 C   0  0  0  0  0  0  0  0  0  0  0  0
    8.9611    6.9499   -0.0000 C   0  0  0  0  0  0  0  0  0  0  0  0
    7.6283    9.1753   -0.0000 C   0  0  0  0  0  0  0  0  0  0  0  0
   11.0437    5.0696   -0.0000 O   0  0  0  0  0  0  0  0  0  0  0  0
   11.1270    2.4515   -0.0000 O   0  0  0  0  0  0  0  0  0  0  0  0
    8.9373    8.4613   -0.0000 C   0  0  0  0  0  0  0  0  0  0  0  0
  1  2  2  0  0  0  0
  2  3  1  0  0  0  0
  2  4  1  0  0  0  0
  4  5  2  0  0  0  0
  4  6  1  0  0  0  0
  5  7  1  0  0  0  0
  6  8  2  0  0  0  0
  7  9  2  0  0  0  0
  9 10  1  0  0  0  0
 10 11  1  0  0  0  0
 10 12  1  0  0  0  0
 11 13  2  0  0  0  0
 11 14  1  0  0  0  0
 12 15  1  0  0  0  0
 13 16  1  0  0  0  0
 14 17  2  0  0  0  0
 15 18  2  0  0  0  0
 15 19  1  0  0  0  0
 16 20  1  0  0  0  0
 17 21  1  0  0  0  0
 18 22  1  0  0  0  0
 19 23  2  0  0  0  0
 21 24  2  0  0  0  0
 21 25  1  0  0  0  0
 22 26  2  0  0  0  0
  8  9  1  0  0  0  0
 16 17  1  0  0  0  0
 23 26  1  0  0  0  0
M  CHG  2   2   1   3  -1
M  END
>  <MolRegNo>
468385

>  <m>
=

>  <Value>
75

>  <Unit>
nM

>  <Type>
Ki

>  <pValue>
7.12

>  <Ligand Efficiency>
0.37

>  <Binding Efficiency>
20.28

>  <Surface Efficiency>
8.04

>  <Assay Index>
336391

>  <Assay Category>


>  <Assay Organism>
Homo sapiens

>  <Target ID>
56

>  <Target Name>
Androgen Receptor

>  <Target Organism>
Homo sapiens

>  <Target Description>
Target is a single protein chain

>  <Sequence Accession>
P10275

>  <Reference>
Bioorg Med Chem 16 (14), 6799-6812 (2008)

>  <Pubmed ID>
18571420

>  <DOI>
10.1016/j.bmc.2008.05.063

$$$$
468384
Actelion Java MolfileCreator 1.0

 25 27  0  0  0  0  0  0  0  0999 V2000
    0.0000   -0.0000   -0.0000 O   0  0  0  0  0  0  0  0  0  0  0  0
   -0.0119    1.5120   -0.0000 N   0  0  0  0  0  0  0  0  0  0  0  0
   -1.3215    2.2740   -0.0000 O   0  0  0  0  0  0  0  0  0  0  0  0
    1.2739    2.2859   -0.0000 C   0  0  0  0  0  0  0  0  0  0  0  0
    2.5597    1.5477   -0.0000 C   0  0  0  0  0  0  0  0  0  0  0  0
    1.2620    3.8098   -0.0000 C   0  0  0  0  0  0  0  0  0  0  0  0
    3.8455    2.3097   -0.0000 C   0  0  0  0  0  0  0  0  0  0  0  0
    2.5597    4.5717   -0.0000 C   0  0  0  0  0  0  0  0  0  0  0  0
    3.8336    3.8336   -0.0000 C   0  0  0  0  0  0  0  0  0  0  0  0
    5.1313    4.6194   -0.0000 N   0  0  0  0  0  0  0  0  0  0  0  0
    6.4409    3.8812   -0.0000 C   0  0  0  0  0  0  0  0  0  0  0  0
    5.1075    6.1314   -0.0000 C   0  0  0  0  0  0  0  0  0  0  0  0
    6.7623    2.4287   -0.0000 C   0  0  0  0  0  0  0  0  0  0  0  0
    7.7267    4.6551   -0.0000 C   0  0  0  0  0  0  0  0  0  0  0  0
    6.3933    6.9052   -0.0000 C   0  0  0  0  0  0  0  0  0  0  0  0
    8.2386    2.2978   -0.0000 N   0  0  0  0  0  0  0  0  0  0  0  0
    8.8458    3.6669   -0.0000 C   0  0  0  0  0  0  0  0  0  0  0  0
    7.6791    6.1790   -0.0000 C   0  0  0  0  0  0  0  0  0  0  0  0
    6.3576    8.4053   -0.0000 C   0  0  0  0  0  0  0  0  0  0  0  0
    9.0006    1.0120   -0.0000 C   0  0  0  0  0  0  0  0  0  0  0  0
   10.3459    3.7264   -0.0000 C   0  0  0  0  0  0  0  0  0  0  0  0
    8.9649    6.9528   -0.0000 C   0  0  0  0  0  0  0  0  0  0  0  0
    7.6315    9.1792   -0.0000 C   0  0  0  0  0  0  0  0  0  0  0  0
   11.0483    5.0599   -0.0000 O   0  0  0  0  0  0  0  0  0  0  0  0
    8.9411    8.4648   -0.0000 C   0  0  0  0  0  0  0  0  0  0  0  0
  1  2  2  0  0  0  0
  2  3  1  0  0  0  0
  2  4  1  0  0  0  0
  4  5  2  0  0  0  0
  4  6  1  0  0  0  0
  5  7  1  0  0  0  0
  6  8  2  0  0  0  0
  7  9  2  0  0  0  0
  9 10  1  0  0  0  0
 10 11  1  0  0  0  0
 10 12  1  0  0  0  0
 11 13  2  0  0  0  0
 11 14  1  0  0  0  0
 12 15  1  0  0  0  0
 13 16  1  0  0  0  0
 14 17  2  0  0  0  0
 15 18  2  0  0  0  0
 15 19  1  0  0  0  0
 16 20  1  0  0  0  0
 17 21  1  0  0  0  0
 18 22  1  0  0  0  0
 19 23  2  0  0  0  0
 21 24  1  0  0  0  0
 22 25  2  0  0  0  0
  8  9  1  0  0  0  0
 16 17  1  0  0  0  0
 23 25  1  0  0  0  0
M  CHG  2   2   1   3  -1
M  END
>  <MolRegNo>
468384

>  <m>
=

>  <Value>
170

>  <Unit>
nM

>  <Type>
Ki

>  <pValue>
6.77

>  <Ligand Efficiency>
0.37

>  <Binding Efficiency>
20.07

>  <Surface Efficiency>
9.46

>  <Assay Index>
336391

>  <Assay Category>


>  <Assay Organism>
Homo sapiens

>  <Target ID>
56

>  <Target Name>
Androgen Receptor

>  <Target Organism>
Homo sapiens

>  <Target Description>
Target is a single protein chain

>  <Sequence Accession>
P10275

>  <Reference>
Bioorg Med Chem 16 (14), 6799-6812 (2008)

>  <Pubmed ID>
18571420

>  <DOI>
10.1016/j.bmc.2008.05.063

$$$$
468383
Actelion Java MolfileCreator 1.0

 28 30  0  0  0  0  0  0  0  0999 V2000
    0.0000   -0.0000   -0.0000 O   0  0  0  0  0  0  0  0  0  0  0  0
   -0.0119    1.5122   -0.0000 N   0  0  0  0  0  0  0  0  0  0  0  0
   -1.3336    2.2743   -0.0000 O   0  0  0  0  0  0  0  0  0  0  0  0
    1.2741    2.2862   -0.0000 C   0  0  0  0  0  0  0  0  0  0  0  0
    2.5601    1.5479   -0.0000 C   0  0  0  0  0  0  0  0  0  0  0  0
    1.2622    3.8103   -0.0000 C   0  0  0  0  0  0  0  0  0  0  0  0
    3.8461    2.3100   -0.0000 C   0  0  0  0  0  0  0  0  0  0  0  0
    2.5601    4.5724   -0.0000 C   0  0  0  0  0  0  0  0  0  0  0  0
    3.8341    3.8341   -0.0000 C   0  0  0  0  0  0  0  0  0  0  0  0
    5.1320    4.6200   -0.0000 N   0  0  0  0  0  0  0  0  0  0  0  0
    6.4418    3.8818   -0.0000 C   0  0  0  0  0  0  0  0  0  0  0  0
    5.1082    6.1322   -0.0000 C   0  0  0  0  0  0  0  0  0  0  0  0
    6.7633    2.4291   -0.0000 C   0  0  0  0  0  0  0  0  0  0  0  0
    7.7278    4.6557   -0.0000 C   0  0  0  0  0  0  0  0  0  0  0  0
    6.3942    6.9062   -0.0000 C   0  0  0  0  0  0  0  0  0  0  0  0
    8.2398    2.2981   -0.0000 N   0  0  0  0  0  0  0  0  0  0  0  0
    8.8471    3.6674   -0.0000 C   0  0  0  0  0  0  0  0  0  0  0  0
    7.6802    6.1799   -0.0000 C   0  0  0  0  0  0  0  0  0  0  0  0
    6.3585    8.4065   -0.0000 C   0  0  0  0  0  0  0  0  0  0  0  0
    9.0019    1.0121   -0.0000 C   0  0  0  0  0  0  0  0  0  0  0  0
   10.3474    3.7270   -0.0000 C   0  0  0  0  0  0  0  0  0  0  0  0
    8.9662    6.9539   -0.0000 C   0  0  0  0  0  0  0  0  0  0  0  0
    7.6326    9.1805   -0.0000 C   0  0  0  0  0  0  0  0  0  0  0  0
   11.1333    2.4648   -0.0000 O   0  0  0  0  0  0  0  0  0  0  0  0
   11.0500    5.0606   -0.0000 O   0  0  0  0  0  0  0  0  0  0  0  0
    8.9424    8.4661   -0.0000 C   0  0  0  0  0  0  0  0  0  0  0  0
   12.5384    5.1201   -0.0000 C   0  0  0  0  0  0  0  0  0  0  0  0
   13.2409    6.4537   -0.0000 C   0  0  0  0  0  0  0  0  0  0  0  0
  1  2  2  0  0  0  0
  2  3  1  0  0  0  0
  2  4  1  0  0  0  0
  4  5  2  0  0  0  0
  4  6  1  0  0  0  0
  5  7  1  0  0  0  0
  6  8  2  0  0  0  0
  7  9  2  0  0  0  0
  9 10  1  0  0  0  0
 10 11  1  0  0  0  0
 10 12  1  0  0  0  0
 11 13  2  0  0  0  0
 11 14  1  0  0  0  0
 12 15  1  0  0  0  0
 13 16  1  0  0  0  0
 14 17  2  0  0  0  0
 15 18  2  0  0  0  0
 15 19  1  0  0  0  0
 16 20  1  0  0  0  0
 17 21  1  0  0  0  0
 18 22  1  0  0  0  0
 19 23  2  0  0  0  0
 21 24  2  0  0  0  0
 21 25  1  0  0  0  0
 22 26  2  0  0  0  0
 25 27  1  0  0  0  0
 27 28  1  0  0  0  0
  8  9  1  0  0  0  0
 16 17  1  0  0  0  0
 23 26  1  0  0  0  0
M  CHG  2   2   1   3  -1
M  END
>  <MolRegNo>
468383

>  <m>
=

>  <Value>
180

>  <Unit>
nM

>  <Type>
Ki

>  <pValue>
6.75

>  <Ligand Efficiency>
0.33

>  <Binding Efficiency>
17.78

>  <Surface Efficiency>
8.69

>  <Assay Index>
336391

>  <Assay Category>


>  <Assay Organism>
Homo sapiens

>  <Target ID>
56

>  <Target Name>
Androgen Receptor

>  <Target Organism>
Homo sapiens

>  <Target Description>
Target is a single protein chain

>  <Sequence Accession>
P10275

>  <Reference>
Bioorg Med Chem 16 (14), 6799-6812 (2008)

>  <Pubmed ID>
18571420

>  <DOI>
10.1016/j.bmc.2008.05.063

$$$$
468382
Actelion Java MolfileCreator 1.0

 31 34  0  0  0  0  0  0  0  0999 V2000
    0.0000   -0.0000   -0.0000 O   0  0  0  0  0  0  0  0  0  0  0  0
   -0.0119    1.5112   -0.0000 C   0  0  0  0  0  0  0  0  0  0  0  0
   -1.3208    2.2728   -0.0000 O   0  0  0  0  0  0  0  0  0  0  0  0
    1.2732    2.2847   -0.0000 C   0  0  0  0  0  0  0  0  0  0  0  0
   -1.3327    3.7840   -0.0000 C   0  0  0  0  0  0  0  0  0  0  0  0
    1.2613    3.8078   -0.0000 C   0  0  0  0  0  0  0  0  0  0  0  0
    2.5584    1.5469   -0.0000 C   0  0  0  0  0  0  0  0  0  0  0  0
    2.5584    4.5694   -0.0000 C   0  0  0  0  0  0  0  0  0  0  0  0
    3.8435    2.3085   -0.0000 C   0  0  0  0  0  0  0  0  0  0  0  0
    3.8435    3.8316   -0.0000 C   0  0  0  0  0  0  0  0  0  0  0  0
    5.1405    4.6170   -0.0000 N   0  0  0  0  0  0  0  0  0  0  0  0
    6.4495    3.8792   -0.0000 C   0  0  0  0  0  0  0  0  0  0  0  0
    5.1167    6.1282   -0.0000 C   0  0  0  0  0  0  0  0  0  0  0  0
    6.7708    2.4275   -0.0000 C   0  0  0  0  0  0  0  0  0  0  0  0
    7.7346    4.6527   -0.0000 C   0  0  0  0  0  0  0  0  0  0  0  0
    6.4019    6.9016   -0.0000 C   0  0  0  0  0  0  0  0  0  0  0  0
    8.2463    2.2966   -0.0000 N   0  0  0  0  0  0  0  0  0  0  0  0
    8.8531    3.6650   -0.0000 C   0  0  0  0  0  0  0  0  0  0  0  0
    7.6870    6.1758   -0.0000 C   0  0  0  0  0  0  0  0  0  0  0  0
    6.3662    8.4010   -0.0000 C   0  0  0  0  0  0  0  0  0  0  0  0
    9.0078    1.0114   -0.0000 C   0  0  0  0  0  0  0  0  0  0  0  0
   10.3525    3.7245   -0.0000 C   0  0  0  0  0  0  0  0  0  0  0  0
    8.9721    6.9492   -0.0000 C   0  0  0  0  0  0  0  0  0  0  0  0
    7.6394    9.1744   -0.0000 C   0  0  0  0  0  0  0  0  0  0  0  0
   11.1378    2.4632   -0.0000 O   0  0  0  0  0  0  0  0  0  0  0  0
   11.0426    5.0691   -0.0000 N   0  0  0  0  0  0  0  0  0  0  0  0
    8.9483    8.4605   -0.0000 C   0  0  0  0  0  0  0  0  0  0  0  0
   12.4706    5.4380   -0.0000 C   0  0  0  0  0  0  0  0  0  0  0  0
   10.2335    6.3543   -0.0000 C   0  0  0  0  0  0  0  0  0  0  0  0
   12.5777    6.9492   -0.0000 C   0  0  0  0  0  0  0  0  0  0  0  0
   11.1735    7.5085   -0.0000 C   0  0  0  0  0  0  0  0  0  0  0  0
  1  2  2  0  0  0  0
  2  3  1  0  0  0  0
  2  4  1  0  0  0  0
  3  5  1  0  0  0  0
  4  6  2  0  0  0  0
  4  7  1  0  0  0  0
  6  8  1  0  0  0  0
  7  9  2  0  0  0  0
  8 10  2  0  0  0  0
 10 11  1  0  0  0  0
 11 12  1  0  0  0  0
 11 13  1  0  0  0  0
 12 14  2  0  0  0  0
 12 15  1  0  0  0  0
 13 16  1  0  0  0  0
 14 17  1  0  0  0  0
 15 18  2  0  0  0  0
 16 19  2  0  0  0  0
 16 20  1  0  0  0  0
 17 21  1  0  0  0  0
 18 22  1  0  0  0  0
 19 23  1  0  0  0  0
 20 24  2  0  0  0  0
 22 25  2  0  0  0  0
 22 26  1  0  0  0  0
 23 27  2  0  0  0  0
 26 28  1  0  0  0  0
 26 29  1  0  0  0  0
 28 30  1  0  0  0  0
 29 31  1  0  0  0  0
  9 10  1  0  0  0  0
 17 18  1  0  0  0  0
 24 27  1  0  0  0  0
 30 31  1  0  0  0  0
M  END
>  <MolRegNo>
468382

>  <m>
=

>  <Value>
180

>  <Unit>
nM

>  <Type>
Ki

>  <pValue>
6.75

>  <Ligand Efficiency>
0.3

>  <Binding Efficiency>
16.15

>  <Surface Efficiency>
12.31

>  <Assay Index>
336391

>  <Assay Category>


>  <Assay Organism>
Homo sapiens

>  <Target ID>
56

>  <Target Name>
Androgen Receptor

>  <Target Organism>
Homo sapiens

>  <Target Description>
Target is a single protein chain

>  <Sequence Accession>
P10275

>  <Reference>
Bioorg Med Chem 16 (14), 6799-6812 (2008)

>  <Pubmed ID>
18571420

>  <DOI>
10.1016/j.bmc.2008.05.063

$$$$
468381
Actelion Java MolfileCreator 1.0

 30 33  0  0  0  0  0  0  0  0999 V2000
    0.0000   -0.0000   -0.0000 O   0  0  0  0  0  0  0  0  0  0  0  0
   -0.8061    1.2802   -0.0000 C   0  0  0  0  0  0  0  0  0  0  0  0
   -0.1185    2.6197   -0.0000 N   0  0  0  0  0  0  0  0  0  0  0  0
   -2.3233    1.2446   -0.0000 C   0  0  0  0  0  0  0  0  0  0  0  0
    1.3039    2.9872   -0.0000 C   0  0  0  0  0  0  0  0  0  0  0  0
   -0.9246    3.8999   -0.0000 C   0  0  0  0  0  0  0  0  0  0  0  0
   -2.9397   -0.1185   -0.0000 N   0  0  0  0  0  0  0  0  0  0  0  0
   -3.4613    2.2522   -0.0000 C   0  0  0  0  0  0  0  0  0  0  0  0
    1.4106    4.4926   -0.0000 C   0  0  0  0  0  0  0  0  0  0  0  0
    0.0119    5.0497   -0.0000 C   0  0  0  0  0  0  0  0  0  0  0  0
   -4.4333    0.0356   -0.0000 C   0  0  0  0  0  0  0  0  0  0  0  0
   -2.1811   -1.3987   -0.0000 C   0  0  0  0  0  0  0  0  0  0  0  0
   -4.7652    1.5054   -0.0000 C   0  0  0  0  0  0  0  0  0  0  0  0
   -6.0928    2.2641   -0.0000 N   0  0  0  0  0  0  0  0  0  0  0  0
   -7.4086    1.5054   -0.0000 C   0  0  0  0  0  0  0  0  0  0  0  0
   -6.1166    3.7695   -0.0000 C   0  0  0  0  0  0  0  0  0  0  0  0
   -8.7125    2.2641   -0.0000 C   0  0  0  0  0  0  0  0  0  0  0  0
   -7.4205    0.0237   -0.0000 C   0  0  0  0  0  0  0  0  0  0  0  0
   -4.8363    4.5400   -0.0000 C   0  0  0  0  0  0  0  0  0  0  0  0
  -10.0283    1.5291   -0.0000 C   0  0  0  0  0  0  0  0  0  0  0  0
   -8.7244   -0.7112   -0.0000 C   0  0  0  0  0  0  0  0  0  0  0  0
   -3.5561    3.8169   -0.0000 C   0  0  0  0  0  0  0  0  0  0  0  0
   -4.8719    6.0336   -0.0000 C   0  0  0  0  0  0  0  0  0  0  0  0
  -10.0402    0.0356   -0.0000 C   0  0  0  0  0  0  0  0  0  0  0  0
   -2.2759    4.5874   -0.0000 C   0  0  0  0  0  0  0  0  0  0  0  0
   -3.6036    6.8041   -0.0000 C   0  0  0  0  0  0  0  0  0  0  0  0
  -11.3441   -0.6994   -0.0000 C   0  0  0  0  0  0  0  0  0  0  0  0
   -2.2996    6.0928   -0.0000 C   0  0  0  0  0  0  0  0  0  0  0  0
  -11.3559   -2.1811   -0.0000 O   0  0  0  0  0  0  0  0  0  0  0  0
  -12.6480    0.0593   -0.0000 C   0  0  0  0  0  0  0  0  0  0  0  0
  1  2  2  0  0  0  0
  2  3  1  0  0  0  0
  2  4  1  0  0  0  0
  3  5  1  0  0  0  0
  3  6  1  0  0  0  0
  4  7  1  0  0  0  0
  4  8  2  0  0  0  0
  5  9  1  0  0  0  0
  6 10  1  0  0  0  0
  7 11  1  0  0  0  0
  7 12  1  0  0  0  0
  8 13  1  0  0  0  0
 13 14  1  0  0  0  0
 14 15  1  0  0  0  0
 14 16  1  0  0  0  0
 15 17  2  0  0  0  0
 15 18  1  0  0  0  0
 16 19  1  0  0  0  0
 17 20  1  0  0  0  0
 18 21  2  0  0  0  0
 19 22  2  0  0  0  0
 19 23  1  0  0  0  0
 20 24  2  0  0  0  0
 22 25  1  0  0  0  0
 23 26  2  0  0  0  0
 24 27  1  0  0  0  0
 25 28  2  0  0  0  0
 27 29  2  0  0  0  0
 27 30  1  0  0  0  0
  9 10  1  0  0  0  0
 11 13  2  0  0  0  0
 21 24  1  0  0  0  0
 26 28  1  0  0  0  0
M  END
>  <MolRegNo>
468381

>  <m>
=

>  <Value>
140

>  <Unit>
nM

>  <Type>
Ki

>  <pValue>
6.85

>  <Ligand Efficiency>
0.31

>  <Binding Efficiency>
17.07

>  <Surface Efficiency>
15.05

>  <Assay Index>
336391

>  <Assay Category>


>  <Assay Organism>
Homo sapiens

>  <Target ID>
56

>  <Target Name>
Androgen Receptor

>  <Target Organism>
Homo sapiens

>  <Target Description>
Target is a single protein chain

>  <Sequence Accession>
P10275

>  <Reference>
Bioorg Med Chem 16 (14), 6799-6812 (2008)

>  <Pubmed ID>
18571420

>  <DOI>
10.1016/j.bmc.2008.05.063

$$$$
468296
Actelion Java MolfileCreator 1.0

 31 34  0  0  0  0  0  0  0  0999 V2000
    0.0000   -0.0000   -0.0000 F   0  0  0  0  0  0  0  0  0  0  0  0
    1.2980    0.7502   -0.0000 C   0  0  0  0  0  0  0  0  0  0  0  0
    2.0363   -0.5359   -0.0000 F   0  0  0  0  0  0  0  0  0  0  0  0
    0.5359    2.0721   -0.0000 F   0  0  0  0  0  0  0  0  0  0  0  0
    2.5841    1.5124   -0.0000 C   0  0  0  0  0  0  0  0  0  0  0  0
    2.5722    3.0366   -0.0000 C   0  0  0  0  0  0  0  0  0  0  0  0
    3.8702    0.7740   -0.0000 C   0  0  0  0  0  0  0  0  0  0  0  0
    3.8702    3.7988   -0.0000 C   0  0  0  0  0  0  0  0  0  0  0  0
    5.1563    1.5362   -0.0000 C   0  0  0  0  0  0  0  0  0  0  0  0
    5.1563    3.0604   -0.0000 C   0  0  0  0  0  0  0  0  0  0  0  0
    6.4543    3.8464   -0.0000 N   0  0  0  0  0  0  0  0  0  0  0  0
    7.7642    3.1081   -0.0000 C   0  0  0  0  0  0  0  0  0  0  0  0
    6.4305    5.3588   -0.0000 C   0  0  0  0  0  0  0  0  0  0  0  0
    8.0858    1.6553   -0.0000 C   0  0  0  0  0  0  0  0  0  0  0  0
    9.0503    3.8821   -0.0000 C   0  0  0  0  0  0  0  0  0  0  0  0
    7.7166    6.1328   -0.0000 C   0  0  0  0  0  0  0  0  0  0  0  0
    9.5624    1.5243   -0.0000 N   0  0  0  0  0  0  0  0  0  0  0  0
   10.1697    2.8937   -0.0000 C   0  0  0  0  0  0  0  0  0  0  0  0
    9.0027    5.4064   -0.0000 C   0  0  0  0  0  0  0  0  0  0  0  0
    7.6809    7.6333   -0.0000 C   0  0  0  0  0  0  0  0  0  0  0  0
   10.3245    0.2382   -0.0000 C   0  0  0  0  0  0  0  0  0  0  0  0
   11.6702    2.9533   -0.0000 C   0  0  0  0  0  0  0  0  0  0  0  0
   10.2888    6.1804   -0.0000 C   0  0  0  0  0  0  0  0  0  0  0  0
    8.9551    8.4073   -0.0000 C   0  0  0  0  0  0  0  0  0  0  0  0
   12.4561    1.6910   -0.0000 O   0  0  0  0  0  0  0  0  0  0  0  0
   12.3609    4.2989   -0.0000 N   0  0  0  0  0  0  0  0  0  0  0  0
   10.2650    7.6928   -0.0000 C   0  0  0  0  0  0  0  0  0  0  0  0
   13.7899    4.6681   -0.0000 C   0  0  0  0  0  0  0  0  0  0  0  0
   11.5511    5.5850   -0.0000 C   0  0  0  0  0  0  0  0  0  0  0  0
   13.8970    6.1804   -0.0000 C   0  0  0  0  0  0  0  0  0  0  0  0
   12.4919    6.7401   -0.0000 C   0  0  0  0  0  0  0  0  0  0  0  0
  1  2  1  0  0  0  0
  2  3  1  0  0  0  0
  2  4  1  0  0  0  0
  2  5  1  0  0  0  0
  5  6  2  0  0  0  0
  5  7  1  0  0  0  0
  6  8  1  0  0  0  0
  7  9  2  0  0  0  0
  8 10  2  0  0  0  0
 10 11  1  0  0  0  0
 11 12  1  0  0  0  0
 11 13  1  0  0  0  0
 12 14  2  0  0  0  0
 12 15  1  0  0  0  0
 13 16  1  0  0  0  0
 14 17  1  0  0  0  0
 15 18  2  0  0  0  0
 16 19  2  0  0  0  0
 16 20  1  0  0  0  0
 17 21  1  0  0  0  0
 18 22  1  0  0  0  0
 19 23  1  0  0  0  0
 20 24  2  0  0  0  0
 22 25  2  0  0  0  0
 22 26  1  0  0  0  0
 23 27  2  0  0  0  0
 26 28  1  0  0  0  0
 26 29  1  0  0  0  0
 28 30  1  0  0  0  0
 29 31  1  0  0  0  0
  9 10  1  0  0  0  0
 17 18  1  0  0  0  0
 24 27  1  0  0  0  0
 30 31  1  0  0  0  0
M  END
>  <MolRegNo>
468296

>  <m>
=

>  <Value>
270

>  <Unit>
nM

>  <Type>
Ki

>  <pValue>
6.57

>  <Ligand Efficiency>
0.29

>  <Binding Efficiency>
15.37

>  <Surface Efficiency>
23.06

>  <Assay Index>
336391

>  <Assay Category>


>  <Assay Organism>
Homo sapiens

>  <Target ID>
56

>  <Target Name>
Androgen Receptor

>  <Target Organism>
Homo sapiens

>  <Target Description>
Target is a single protein chain

>  <Sequence Accession>
P10275

>  <Reference>
Bioorg Med Chem 16 (14), 6799-6812 (2008)

>  <Pubmed ID>
18571420

>  <DOI>
10.1016/j.bmc.2008.05.063

$$$$
468295
Actelion Java MolfileCreator 1.0

 29 32  0  0  0  0  0  0  0  0999 V2000
    0.0000   -0.0000   -0.0000 O   0  0  0  0  0  0  0  0  0  0  0  0
   -0.8057    1.2797   -0.0000 C   0  0  0  0  0  0  0  0  0  0  0  0
   -0.1185    2.6186   -0.0000 N   0  0  0  0  0  0  0  0  0  0  0  0
   -2.3224    1.2441   -0.0000 C   0  0  0  0  0  0  0  0  0  0  0  0
    1.3034    2.9859   -0.0000 C   0  0  0  0  0  0  0  0  0  0  0  0
   -0.9242    3.8983   -0.0000 C   0  0  0  0  0  0  0  0  0  0  0  0
   -2.9385   -0.1185   -0.0000 N   0  0  0  0  0  0  0  0  0  0  0  0
   -3.4599    2.2513   -0.0000 C   0  0  0  0  0  0  0  0  0  0  0  0
    1.4100    4.4907   -0.0000 C   0  0  0  0  0  0  0  0  0  0  0  0
    0.0118    5.0476   -0.0000 C   0  0  0  0  0  0  0  0  0  0  0  0
   -4.4315    0.0355   -0.0000 C   0  0  0  0  0  0  0  0  0  0  0  0
   -2.1802   -1.3982   -0.0000 C   0  0  0  0  0  0  0  0  0  0  0  0
   -4.7633    1.5048   -0.0000 C   0  0  0  0  0  0  0  0  0  0  0  0
   -6.0903    2.2631   -0.0000 N   0  0  0  0  0  0  0  0  0  0  0  0
   -7.4056    1.5048   -0.0000 C   0  0  0  0  0  0  0  0  0  0  0  0
   -6.1140    3.7680   -0.0000 C   0  0  0  0  0  0  0  0  0  0  0  0
   -8.7090    2.2631   -0.0000 C   0  0  0  0  0  0  0  0  0  0  0  0
   -7.4174    0.0118   -0.0000 C   0  0  0  0  0  0  0  0  0  0  0  0
   -4.8344    4.5381   -0.0000 C   0  0  0  0  0  0  0  0  0  0  0  0
  -10.0242    1.5285   -0.0000 C   0  0  0  0  0  0  0  0  0  0  0  0
   -8.7208   -0.7228   -0.0000 C   0  0  0  0  0  0  0  0  0  0  0  0
   -3.5547    3.8154   -0.0000 C   0  0  0  0  0  0  0  0  0  0  0  0
   -4.8699    6.0311   -0.0000 C   0  0  0  0  0  0  0  0  0  0  0  0
  -10.0360    0.0355   -0.0000 C   0  0  0  0  0  0  0  0  0  0  0  0
   -2.2750    4.5855   -0.0000 C   0  0  0  0  0  0  0  0  0  0  0  0
   -3.6021    6.8013   -0.0000 C   0  0  0  0  0  0  0  0  0  0  0  0
  -11.3276   -0.7109   -0.0000 C   0  0  0  0  0  0  0  0  0  0  0  0
   -2.2987    6.0903   -0.0000 C   0  0  0  0  0  0  0  0  0  0  0  0
  -12.6309   -1.4456   -0.0000 N   0  0  0  0  0  0  0  0  0  0  0  0
  1  2  2  0  0  0  0
  2  3  1  0  0  0  0
  2  4  1  0  0  0  0
  3  5  1  0  0  0  0
  3  6  1  0  0  0  0
  4  7  1  0  0  0  0
  4  8  2  0  0  0  0
  5  9  1  0  0  0  0
  6 10  1  0  0  0  0
  7 11  1  0  0  0  0
  7 12  1  0  0  0  0
  8 13  1  0  0  0  0
 13 14  1  0  0  0  0
 14 15  1  0  0  0  0
 14 16  1  0  0  0  0
 15 17  2  0  0  0  0
 15 18  1  0  0  0  0
 16 19  1  0  0  0  0
 17 20  1  0  0  0  0
 18 21  2  0  0  0  0
 19 22  2  0  0  0  0
 19 23  1  0  0  0  0
 20 24  2  0  0  0  0
 22 25  1  0  0  0  0
 23 26  2  0  0  0  0
 24 27  1  0  0  0  0
 25 28  2  0  0  0  0
 27 29  3  0  0  0  0
  9 10  1  0  0  0  0
 11 13  2  0  0  0  0
 21 24  1  0  0  0  0
 26 28  1  0  0  0  0
M  END
>  <MolRegNo>
468295

>  <m>
=

>  <Value>
130

>  <Unit>
nM

>  <Type>
Ki

>  <pValue>
6.89

>  <Ligand Efficiency>
0.32

>  <Binding Efficiency>
17.91

>  <Surface Efficiency>
13.17

>  <Assay Index>
336391

>  <Assay Category>


>  <Assay Organism>
Homo sapiens

>  <Target ID>
56

>  <Target Name>
Androgen Receptor

>  <Target Organism>
Homo sapiens

>  <Target Description>
Target is a single protein chain

>  <Sequence Accession>
P10275

>  <Reference>
Bioorg Med Chem 16 (14), 6799-6812 (2008)

>  <Pubmed ID>
18571420

>  <DOI>
10.1016/j.bmc.2008.05.063

$$$$
468293
Actelion Java MolfileCreator 1.0

 30 33  0  0  0  0  0  0  0  0999 V2000
    0.0000   -0.0000   -0.0000 O   0  0  0  0  0  0  0  0  0  0  0  0
    1.2876   -0.7392   -0.0000 N   0  0  0  0  0  0  0  0  0  0  0  0
    2.5751    0.0238   -0.0000 O   0  0  0  0  0  0  0  0  0  0  0  0
    1.2756   -2.2294   -0.0000 C   0  0  0  0  0  0  0  0  0  0  0  0
    2.5632   -2.9685   -0.0000 C   0  0  0  0  0  0  0  0  0  0  0  0
   -0.0477   -2.9685   -0.0000 C   0  0  0  0  0  0  0  0  0  0  0  0
    3.8627   -2.1817   -0.0000 N   0  0  0  0  0  0  0  0  0  0  0  0
    2.5513   -4.4707   -0.0000 C   0  0  0  0  0  0  0  0  0  0  0  0
   -0.0596   -4.4707   -0.0000 C   0  0  0  0  0  0  0  0  0  0  0  0
    5.1741   -2.9209   -0.0000 C   0  0  0  0  0  0  0  0  0  0  0  0
    3.8388   -0.6676   -0.0000 C   0  0  0  0  0  0  0  0  0  0  0  0
    1.2399   -5.2099   -0.0000 C   0  0  0  0  0  0  0  0  0  0  0  0
    5.4960   -4.3753   -0.0000 C   0  0  0  0  0  0  0  0  0  0  0  0
    6.4617   -2.1459   -0.0000 C   0  0  0  0  0  0  0  0  0  0  0  0
    5.1264    0.1073   -0.0000 C   0  0  0  0  0  0  0  0  0  0  0  0
    6.9743   -4.5065   -0.0000 N   0  0  0  0  0  0  0  0  0  0  0  0
    7.5823   -3.1355   -0.0000 C   0  0  0  0  0  0  0  0  0  0  0  0
    6.4140   -0.6199   -0.0000 C   0  0  0  0  0  0  0  0  0  0  0  0
    5.0906    1.6095   -0.0000 C   0  0  0  0  0  0  0  0  0  0  0  0
    7.7373   -5.7940   -0.0000 C   0  0  0  0  0  0  0  0  0  0  0  0
    9.0845   -3.0758   -0.0000 C   0  0  0  0  0  0  0  0  0  0  0  0
    7.7015    0.1550   -0.0000 C   0  0  0  0  0  0  0  0  0  0  0  0
    6.3663    2.3844   -0.0000 C   0  0  0  0  0  0  0  0  0  0  0  0
    9.8713   -4.3396   -0.0000 O   0  0  0  0  0  0  0  0  0  0  0  0
    9.7759   -1.7287   -0.0000 N   0  0  0  0  0  0  0  0  0  0  0  0
    7.6777    1.6691   -0.0000 C   0  0  0  0  0  0  0  0  0  0  0  0
   11.2066   -1.3591   -0.0000 C   0  0  0  0  0  0  0  0  0  0  0  0
    8.9653   -0.4411   -0.0000 C   0  0  0  0  0  0  0  0  0  0  0  0
   11.3139    0.1550   -0.0000 C   0  0  0  0  0  0  0  0  0  0  0  0
    9.9071    0.7153   -0.0000 C   0  0  0  0  0  0  0  0  0  0  0  0
  1  2  2  0  0  0  0
  2  3  1  0  0  0  0
  2  4  1  0  0  0  0
  4  5  2  0  0  0  0
  4  6  1  0  0  0  0
  5  7  1  0  0  0  0
  5  8  1  0  0  0  0
  6  9  2  0  0  0  0
  7 10  1  0  0  0  0
  7 11  1  0  0  0  0
  8 12  2  0  0  0  0
 10 13  2  0  0  0  0
 10 14  1  0  0  0  0
 11 15  1  0  0  0  0
 13 16  1  0  0  0  0
 14 17  2  0  0  0  0
 15 18  2  0  0  0  0
 15 19  1  0  0  0  0
 16 20  1  0  0  0  0
 17 21  1  0  0  0  0
 18 22  1  0  0  0  0
 19 23  2  0  0  0  0
 21 24  2  0  0  0  0
 21 25  1  0  0  0  0
 22 26  2  0  0  0  0
 25 27  1  0  0  0  0
 25 28  1  0  0  0  0
 27 29  1  0  0  0  0
 28 30  1  0  0  0  0
  9 12  1  0  0  0  0
 16 17  1  0  0  0  0
 23 26  1  0  0  0  0
 29 30  1  0  0  0  0
M  CHG  2   2   1   3  -1
M  END
>  <MolRegNo>
468293

>  <m>
=

>  <Value>
1300

>  <Unit>
nM

>  <Type>
Ki

>  <pValue>
5.89

>  <Ligand Efficiency>
0.27

>  <Binding Efficiency>
14.55

>  <Surface Efficiency>
8.22

>  <Assay Index>
336391

>  <Assay Category>


>  <Assay Organism>
Homo sapiens

>  <Target ID>
56

>  <Target Name>
Androgen Receptor

>  <Target Organism>
Homo sapiens

>  <Target Description>
Target is a single protein chain

>  <Sequence Accession>
P10275

>  <Reference>
Bioorg Med Chem 16 (14), 6799-6812 (2008)

>  <Pubmed ID>
18571420

>  <DOI>
10.1016/j.bmc.2008.05.063

$$$$
468206
Actelion Java MolfileCreator 1.0

 32 35  0  0  0  0  0  0  0  0999 V2000
    0.0000   -0.0000   -0.0000 O   0  0  0  0  0  0  0  0  0  0  0  0
   -0.0119    1.5119   -0.0000 N   0  0  0  0  0  0  0  0  0  0  0  0
   -1.3334    2.2739   -0.0000 O   0  0  0  0  0  0  0  0  0  0  0  0
    1.2738    2.2858   -0.0000 C   0  0  0  0  0  0  0  0  0  0  0  0
    2.5596    1.5477   -0.0000 C   0  0  0  0  0  0  0  0  0  0  0  0
    1.2619    3.8096   -0.0000 C   0  0  0  0  0  0  0  0  0  0  0  0
    3.8453    2.3096   -0.0000 C   0  0  0  0  0  0  0  0  0  0  0  0
    2.5596    4.5715   -0.0000 C   0  0  0  0  0  0  0  0  0  0  0  0
    3.8334    3.8334   -0.0000 C   0  0  0  0  0  0  0  0  0  0  0  0
    5.1311    4.6192   -0.0000 N   0  0  0  0  0  0  0  0  0  0  0  0
    6.4406    3.8810   -0.0000 C   0  0  0  0  0  0  0  0  0  0  0  0
    5.1073    6.1311   -0.0000 C   0  0  0  0  0  0  0  0  0  0  0  0
    6.7621    2.4286   -0.0000 C   0  0  0  0  0  0  0  0  0  0  0  0
    7.7264    4.6549   -0.0000 C   0  0  0  0  0  0  0  0  0  0  0  0
    6.3930    6.9049   -0.0000 C   0  0  0  0  0  0  0  0  0  0  0  0
    8.2383    2.2977   -0.0000 N   0  0  0  0  0  0  0  0  0  0  0  0
    8.8455    3.6668   -0.0000 C   0  0  0  0  0  0  0  0  0  0  0  0
    7.6788    6.1787   -0.0000 C   0  0  0  0  0  0  0  0  0  0  0  0
    6.3573    8.4050   -0.0000 C   0  0  0  0  0  0  0  0  0  0  0  0
    9.0002    1.0119   -0.0000 C   0  0  0  0  0  0  0  0  0  0  0  0
   10.3455    3.7263   -0.0000 C   0  0  0  0  0  0  0  0  0  0  0  0
    8.9645    6.9525   -0.0000 C   0  0  0  0  0  0  0  0  0  0  0  0
    7.6311    9.1788   -0.0000 C   0  0  0  0  0  0  0  0  0  0  0  0
   11.1312    2.4643   -0.0000 O   0  0  0  0  0  0  0  0  0  0  0  0
   11.0360    5.0716   -0.0000 N   0  0  0  0  0  0  0  0  0  0  0  0
    8.9407    8.4645   -0.0000 C   0  0  0  0  0  0  0  0  0  0  0  0
   12.4646    5.4406   -0.0000 C   0  0  0  0  0  0  0  0  0  0  0  0
   10.2264    6.3573   -0.0000 C   0  0  0  0  0  0  0  0  0  0  0  0
   10.2264    9.2383   -0.0000 C   0  0  0  0  0  0  0  0  0  0  0  0
   12.5717    6.9525   -0.0000 C   0  0  0  0  0  0  0  0  0  0  0  0
   11.1669    7.5121   -0.0000 C   0  0  0  0  0  0  0  0  0  0  0  0
   11.5241    8.5121   -0.0000 O   0  0  0  0  0  0  0  0  0  0  0  0
  1  2  2  0  0  0  0
  2  3  1  0  0  0  0
  2  4  1  0  0  0  0
  4  5  2  0  0  0  0
  4  6  1  0  0  0  0
  5  7  1  0  0  0  0
  6  8  2  0  0  0  0
  7  9  2  0  0  0  0
  9 10  1  0  0  0  0
 10 11  1  0  0  0  0
 10 12  1  0  0  0  0
 11 13  2  0  0  0  0
 11 14  1  0  0  0  0
 12 15  1  0  0  0  0
 13 16  1  0  0  0  0
 14 17  2  0  0  0  0
 15 18  2  0  0  0  0
 15 19  1  0  0  0  0
 16 20  1  0  0  0  0
 17 21  1  0  0  0  0
 18 22  1  0  0  0  0
 19 23  2  0  0  0  0
 21 24  2  0  0  0  0
 21 25  1  0  0  0  0
 22 26  2  0  0  0  0
 25 27  1  0  0  0  0
 25 28  1  0  0  0  0
 26 29  1  0  0  0  0
 27 30  1  0  0  0  0
 28 31  1  0  0  0  0
 29 32  1  0  0  0  0
  8  9  1  0  0  0  0
 16 17  1  0  0  0  0
 23 26  1  0  0  0  0
 30 31  1  0  0  0  0
M  CHG  2   2   1   3  -1
M  END
>  <MolRegNo>
468206

>  <m>
=

>  <Value>
1800

>  <Unit>
nM

>  <Type>
Ki

>  <pValue>
5.75

>  <Ligand Efficiency>
0.25

>  <Binding Efficiency>
13.22

>  <Surface Efficiency>
6.25

>  <Assay Index>
336391

>  <Assay Category>


>  <Assay Organism>
Homo sapiens

>  <Target ID>
56

>  <Target Name>
Androgen Receptor

>  <Target Organism>
Homo sapiens

>  <Target Description>
Target is a single protein chain

>  <Sequence Accession>
P10275

>  <Reference>
Bioorg Med Chem 16 (14), 6799-6812 (2008)

>  <Pubmed ID>
18571420

>  <DOI>
10.1016/j.bmc.2008.05.063

$$$$
468204
Actelion Java MolfileCreator 1.0

 31 34  0  0  0  0  0  0  0  0999 V2000
    0.0000   -0.0000   -0.0000 O   0  0  0  0  0  0  0  0  0  0  0  0
   -0.0119    1.5113   -0.0000 N   0  0  0  0  0  0  0  0  0  0  0  0
   -1.3328    2.2730   -0.0000 O   0  0  0  0  0  0  0  0  0  0  0  0
    1.2733    2.2849   -0.0000 C   0  0  0  0  0  0  0  0  0  0  0  0
    2.5586    1.5470   -0.0000 C   0  0  0  0  0  0  0  0  0  0  0  0
    1.2614    3.8081   -0.0000 C   0  0  0  0  0  0  0  0  0  0  0  0
    3.8438    2.3087   -0.0000 C   0  0  0  0  0  0  0  0  0  0  0  0
    2.5586    4.5697   -0.0000 C   0  0  0  0  0  0  0  0  0  0  0  0
    3.8319    3.8319   -0.0000 C   0  0  0  0  0  0  0  0  0  0  0  0
    5.1290    4.6173   -0.0000 N   0  0  0  0  0  0  0  0  0  0  0  0
    6.4380    3.8795   -0.0000 C   0  0  0  0  0  0  0  0  0  0  0  0
    5.1052    6.1286   -0.0000 C   0  0  0  0  0  0  0  0  0  0  0  0
    6.7594    2.4277   -0.0000 C   0  0  0  0  0  0  0  0  0  0  0  0
    7.7233    4.6530   -0.0000 C   0  0  0  0  0  0  0  0  0  0  0  0
    6.3904    6.9022   -0.0000 C   0  0  0  0  0  0  0  0  0  0  0  0
    8.2350    2.2968   -0.0000 N   0  0  0  0  0  0  0  0  0  0  0  0
    8.8419    3.6653   -0.0000 C   0  0  0  0  0  0  0  0  0  0  0  0
    7.6757    6.1762   -0.0000 C   0  0  0  0  0  0  0  0  0  0  0  0
    6.3547    8.4016   -0.0000 C   0  0  0  0  0  0  0  0  0  0  0  0
    8.9966    1.0115   -0.0000 C   0  0  0  0  0  0  0  0  0  0  0  0
   10.3413    3.7248   -0.0000 C   0  0  0  0  0  0  0  0  0  0  0  0
    8.9609    6.9498   -0.0000 C   0  0  0  0  0  0  0  0  0  0  0  0
    7.6281    9.1751   -0.0000 C   0  0  0  0  0  0  0  0  0  0  0  0
   11.1268    2.4634   -0.0000 O   0  0  0  0  0  0  0  0  0  0  0  0
   11.0316    5.0695   -0.0000 N   0  0  0  0  0  0  0  0  0  0  0  0
    8.9371    8.4611   -0.0000 C   0  0  0  0  0  0  0  0  0  0  0  0
   12.4596    5.4384   -0.0000 C   0  0  0  0  0  0  0  0  0  0  0  0
   10.2223    6.3547   -0.0000 C   0  0  0  0  0  0  0  0  0  0  0  0
   10.2223    9.2346   -0.0000 O   0  0  0  0  0  0  0  0  0  0  0  0
   12.5667    6.9617   -0.0000 C   0  0  0  0  0  0  0  0  0  0  0  0
   11.1625    7.5091   -0.0000 C   0  0  0  0  0  0  0  0  0  0  0  0
  1  2  2  0  0  0  0
  2  3  1  0  0  0  0
  2  4  1  0  0  0  0
  4  5  2  0  0  0  0
  4  6  1  0  0  0  0
  5  7  1  0  0  0  0
  6  8  2  0  0  0  0
  7  9  2  0  0  0  0
  9 10  1  0  0  0  0
 10 11  1  0  0  0  0
 10 12  1  0  0  0  0
 11 13  2  0  0  0  0
 11 14  1  0  0  0  0
 12 15  1  0  0  0  0
 13 16  1  0  0  0  0
 14 17  2  0  0  0  0
 15 18  2  0  0  0  0
 15 19  1  0  0  0  0
 16 20  1  0  0  0  0
 17 21  1  0  0  0  0
 18 22  1  0  0  0  0
 19 23  2  0  0  0  0
 21 24  2  0  0  0  0
 21 25  1  0  0  0  0
 22 26  2  0  0  0  0
 25 27  1  0  0  0  0
 25 28  1  0  0  0  0
 26 29  1  0  0  0  0
 27 30  1  0  0  0  0
 28 31  1  0  0  0  0
  8  9  1  0  0  0  0
 16 17  1  0  0  0  0
 23 26  1  0  0  0  0
 30 31  1  0  0  0  0
M  CHG  2   2   1   3  -1
M  END
>  <MolRegNo>
468204

>  <m>
=

>  <Value>
730

>  <Unit>
nM

>  <Type>
Ki

>  <pValue>
6.14

>  <Ligand Efficiency>
0.27

>  <Binding Efficiency>
14.59

>  <Surface Efficiency>
6.68

>  <Assay Index>
336391

>  <Assay Category>


>  <Assay Organism>
Homo sapiens

>  <Target ID>
56

>  <Target Name>
Androgen Receptor

>  <Target Organism>
Homo sapiens

>  <Target Description>
Target is a single protein chain

>  <Sequence Accession>
P10275

>  <Reference>
Bioorg Med Chem 16 (14), 6799-6812 (2008)

>  <Pubmed ID>
18571420

>  <DOI>
10.1016/j.bmc.2008.05.063

$$$$
468203
Actelion Java MolfileCreator 1.0

 31 34  0  0  0  0  0  0  0  0999 V2000
    0.0000   -0.0000   -0.0000 O   0  0  0  0  0  0  0  0  0  0  0  0
   -0.0119    1.5122   -0.0000 N   0  0  0  0  0  0  0  0  0  0  0  0
   -1.3217    2.2742   -0.0000 O   0  0  0  0  0  0  0  0  0  0  0  0
    1.2740    2.2861   -0.0000 C   0  0  0  0  0  0  0  0  0  0  0  0
    2.5600    1.5479   -0.0000 C   0  0  0  0  0  0  0  0  0  0  0  0
    1.2621    3.8102   -0.0000 C   0  0  0  0  0  0  0  0  0  0  0  0
    3.8459    2.3099   -0.0000 C   0  0  0  0  0  0  0  0  0  0  0  0
    2.5600    4.5722   -0.0000 C   0  0  0  0  0  0  0  0  0  0  0  0
    3.8340    3.8340   -0.0000 C   0  0  0  0  0  0  0  0  0  0  0  0
    5.1318    4.6198   -0.0000 N   0  0  0  0  0  0  0  0  0  0  0  0
    6.4416    3.8816   -0.0000 C   0  0  0  0  0  0  0  0  0  0  0  0
    5.1080    6.1320   -0.0000 C   0  0  0  0  0  0  0  0  0  0  0  0
    6.7631    2.4290   -0.0000 C   0  0  0  0  0  0  0  0  0  0  0  0
    7.7275    4.6556   -0.0000 C   0  0  0  0  0  0  0  0  0  0  0  0
    6.3940    6.9059   -0.0000 C   0  0  0  0  0  0  0  0  0  0  0  0
    8.2395    2.2980   -0.0000 N   0  0  0  0  0  0  0  0  0  0  0  0
    8.8468    3.6673   -0.0000 C   0  0  0  0  0  0  0  0  0  0  0  0
    7.6799    6.1796   -0.0000 C   0  0  0  0  0  0  0  0  0  0  0  0
    6.3582    8.4062   -0.0000 C   0  0  0  0  0  0  0  0  0  0  0  0
    9.0015    1.0121   -0.0000 C   0  0  0  0  0  0  0  0  0  0  0  0
   10.3470    3.7268   -0.0000 C   0  0  0  0  0  0  0  0  0  0  0  0
    8.9658    6.9536   -0.0000 C   0  0  0  0  0  0  0  0  0  0  0  0
    7.6323    9.1801   -0.0000 C   0  0  0  0  0  0  0  0  0  0  0  0
   11.1329    2.4647   -0.0000 O   0  0  0  0  0  0  0  0  0  0  0  0
   11.0376    5.0723   -0.0000 N   0  0  0  0  0  0  0  0  0  0  0  0
    8.9420    8.4657   -0.0000 C   0  0  0  0  0  0  0  0  0  0  0  0
   12.4664    5.4414   -0.0000 C   0  0  0  0  0  0  0  0  0  0  0  0
   10.2279    6.3582   -0.0000 C   0  0  0  0  0  0  0  0  0  0  0  0
   10.2160    9.2397   -0.0000 C   0  0  0  0  0  0  0  0  0  0  0  0
   12.5736    6.9536   -0.0000 C   0  0  0  0  0  0  0  0  0  0  0  0
   11.1686    7.5132   -0.0000 C   0  0  0  0  0  0  0  0  0  0  0  0
  1  2  2  0  0  0  0
  2  3  1  0  0  0  0
  2  4  1  0  0  0  0
  4  5  2  0  0  0  0
  4  6  1  0  0  0  0
  5  7  1  0  0  0  0
  6  8  2  0  0  0  0
  7  9  2  0  0  0  0
  9 10  1  0  0  0  0
 10 11  1  0  0  0  0
 10 12  1  0  0  0  0
 11 13  2  0  0  0  0
 11 14  1  0  0  0  0
 12 15  1  0  0  0  0
 13 16  1  0  0  0  0
 14 17  2  0  0  0  0
 15 18  2  0  0  0  0
 15 19  1  0  0  0  0
 16 20  1  0  0  0  0
 17 21  1  0  0  0  0
 18 22  1  0  0  0  0
 19 23  2  0  0  0  0
 21 24  2  0  0  0  0
 21 25  1  0  0  0  0
 22 26  2  0  0  0  0
 25 27  1  0  0  0  0
 25 28  1  0  0  0  0
 26 29  1  0  0  0  0
 27 30  1  0  0  0  0
 28 31  1  0  0  0  0
  8  9  1  0  0  0  0
 16 17  1  0  0  0  0
 23 26  1  0  0  0  0
 30 31  1  0  0  0  0
M  CHG  2   2   1   3  -1
M  END
>  <MolRegNo>
468203

>  <m>
=

>  <Value>
810

>  <Unit>
nM

>  <Type>
Ki

>  <pValue>
6.09

>  <Ligand Efficiency>
0.27

>  <Binding Efficiency>
14.56

>  <Surface Efficiency>
8.51

>  <Assay Index>
336391

>  <Assay Category>


>  <Assay Organism>
Homo sapiens

>  <Target ID>
56

>  <Target Name>
Androgen Receptor

>  <Target Organism>
Homo sapiens

>  <Target Description>
Target is a single protein chain

>  <Sequence Accession>
P10275

>  <Reference>
Bioorg Med Chem 16 (14), 6799-6812 (2008)

>  <Pubmed ID>
18571420

>  <DOI>
10.1016/j.bmc.2008.05.063

$$$$
468134
Actelion Java MolfileCreator 1.0

 31 34  0  0  0  0  0  0  0  0999 V2000
    0.0000   -0.0000   -0.0000 F   0  0  0  0  0  0  0  0  0  0  0  0
   -1.3070   -0.7485   -0.0000 C   0  0  0  0  0  0  0  0  0  0  0  0
   -1.3070   -2.2337   -0.0000 C   0  0  0  0  0  0  0  0  0  0  0  0
   -2.6377   -0.0000   -0.0000 C   0  0  0  0  0  0  0  0  0  0  0  0
   -2.6139   -2.9822   -0.0000 C   0  0  0  0  0  0  0  0  0  0  0  0
   -3.9328   -0.7604   -0.0000 C   0  0  0  0  0  0  0  0  0  0  0  0
   -3.9209   -2.2218   -0.0000 C   0  0  0  0  0  0  0  0  0  0  0  0
   -5.2278   -2.9704   -0.0000 C   0  0  0  0  0  0  0  0  0  0  0  0
   -5.2278   -4.4555   -0.0000 N   0  0  0  0  0  0  0  0  0  0  0  0
   -6.5467   -5.2160   -0.0000 C   0  0  0  0  0  0  0  0  0  0  0  0
   -3.9209   -5.1922   -0.0000 C   0  0  0  0  0  0  0  0  0  0  0  0
   -6.5586   -6.7130   -0.0000 C   0  0  0  0  0  0  0  0  0  0  0  0
   -7.8536   -4.4555   -0.0000 C   0  0  0  0  0  0  0  0  0  0  0  0
   -3.6001   -6.6417   -0.0000 C   0  0  0  0  0  0  0  0  0  0  0  0
   -2.6377   -4.4199   -0.0000 C   0  0  0  0  0  0  0  0  0  0  0  0
   -7.8655   -7.4497   -0.0000 C   0  0  0  0  0  0  0  0  0  0  0  0
   -9.1725   -5.1922   -0.0000 C   0  0  0  0  0  0  0  0  0  0  0  0
   -2.1268   -6.7724   -0.0000 N   0  0  0  0  0  0  0  0  0  0  0  0
   -1.5208   -5.4061   -0.0000 C   0  0  0  0  0  0  0  0  0  0  0  0
   -9.1844   -6.6892   -0.0000 C   0  0  0  0  0  0  0  0  0  0  0  0
   -1.3664   -8.0556   -0.0000 C   0  0  0  0  0  0  0  0  0  0  0  0
   -0.0238   -5.3466   -0.0000 C   0  0  0  0  0  0  0  0  0  0  0  0
  -10.4913   -7.4378   -0.0000 N   0  0  0  0  0  0  0  0  0  0  0  0
    0.7604   -6.6061   -0.0000 O   0  0  0  0  0  0  0  0  0  0  0  0
    0.6654   -4.0040   -0.0000 N   0  0  0  0  0  0  0  0  0  0  0  0
  -10.5032   -8.9230   -0.0000 O   0  0  0  0  0  0  0  0  0  0  0  0
  -11.8101   -6.6774   -0.0000 O   0  0  0  0  0  0  0  0  0  0  0  0
    2.0911   -3.6357   -0.0000 C   0  0  0  0  0  0  0  0  0  0  0  0
   -0.1426   -2.7208   -0.0000 C   0  0  0  0  0  0  0  0  0  0  0  0
    2.1981   -2.1149   -0.0000 C   0  0  0  0  0  0  0  0  0  0  0  0
    0.7961   -1.5683   -0.0000 C   0  0  0  0  0  0  0  0  0  0  0  0
  1  2  1  0  0  0  0
  2  3  2  0  0  0  0
  2  4  1  0  0  0  0
  3  5  1  0  0  0  0
  4  6  2  0  0  0  0
  5  7  2  0  0  0  0
  7  8  1  0  0  0  0
  8  9  1  0  0  0  0
  9 10  1  0  0  0  0
  9 11  1  0  0  0  0
 10 12  2  0  0  0  0
 10 13  1  0  0  0  0
 11 14  2  0  0  0  0
 11 15  1  0  0  0  0
 12 16  1  0  0  0  0
 13 17  2  0  0  0  0
 14 18  1  0  0  0  0
 15 19  2  0  0  0  0
 16 20  2  0  0  0  0
 18 21  1  0  0  0  0
 19 22  1  0  0  0  0
 20 23  1  0  0  0  0
 22 24  2  0  0  0  0
 22 25  1  0  0  0  0
 23 26  2  0  0  0  0
 23 27  1  0  0  0  0
 25 28  1  0  0  0  0
 25 29  1  0  0  0  0
 28 30  1  0  0  0  0
 29 31  1  0  0  0  0
  6  7  1  0  0  0  0
 17 20  1  0  0  0  0
 18 19  1  0  0  0  0
 30 31  1  0  0  0  0
M  CHG  2  23   1  27  -1
M  END
>  <MolRegNo>
468134

>  <m>
=

>  <Value>
800

>  <Unit>
nM

>  <Type>
Ki

>  <pValue>
6.1

>  <Ligand Efficiency>
0.27

>  <Binding Efficiency>
14.43

>  <Surface Efficiency>
8.51

>  <Assay Index>
336391

>  <Assay Category>


>  <Assay Organism>
Homo sapiens

>  <Target ID>
56

>  <Target Name>
Androgen Receptor

>  <Target Organism>
Homo sapiens

>  <Target Description>
Target is a single protein chain

>  <Sequence Accession>
P10275

>  <Reference>
Bioorg Med Chem 16 (14), 6799-6812 (2008)

>  <Pubmed ID>
18571420

>  <DOI>
10.1016/j.bmc.2008.05.063

$$$$
468133
Actelion Java MolfileCreator 1.0

 30 33  0  0  0  0  0  0  0  0999 V2000
    0.0000   -0.0000   -0.0000 O   0  0  0  0  0  0  0  0  0  0  0  0
   -0.0119    1.5119   -0.0000 N   0  0  0  0  0  0  0  0  0  0  0  0
   -1.3214    2.2738   -0.0000 O   0  0  0  0  0  0  0  0  0  0  0  0
    1.2738    2.2857   -0.0000 C   0  0  0  0  0  0  0  0  0  0  0  0
    2.5595    1.5476   -0.0000 C   0  0  0  0  0  0  0  0  0  0  0  0
    1.2619    3.8095   -0.0000 C   0  0  0  0  0  0  0  0  0  0  0  0
    3.8452    2.3095   -0.0000 C   0  0  0  0  0  0  0  0  0  0  0  0
    2.5595    4.5714   -0.0000 C   0  0  0  0  0  0  0  0  0  0  0  0
    3.8333    3.8333   -0.0000 C   0  0  0  0  0  0  0  0  0  0  0  0
    5.1309    4.6190   -0.0000 N   0  0  0  0  0  0  0  0  0  0  0  0
    6.4404    3.8809   -0.0000 C   0  0  0  0  0  0  0  0  0  0  0  0
    5.1071    6.1309   -0.0000 C   0  0  0  0  0  0  0  0  0  0  0  0
    6.7618    2.4285   -0.0000 C   0  0  0  0  0  0  0  0  0  0  0  0
    7.7261    4.6547   -0.0000 C   0  0  0  0  0  0  0  0  0  0  0  0
    6.3928    6.9046   -0.0000 C   0  0  0  0  0  0  0  0  0  0  0  0
    8.2380    2.2976   -0.0000 N   0  0  0  0  0  0  0  0  0  0  0  0
    8.8451    3.6666   -0.0000 C   0  0  0  0  0  0  0  0  0  0  0  0
    7.6784    6.1785   -0.0000 C   0  0  0  0  0  0  0  0  0  0  0  0
    6.3570    8.4046   -0.0000 C   0  0  0  0  0  0  0  0  0  0  0  0
    8.9999    1.0119   -0.0000 C   0  0  0  0  0  0  0  0  0  0  0  0
   10.3451    3.7261   -0.0000 C   0  0  0  0  0  0  0  0  0  0  0  0
    8.9641    6.9523   -0.0000 C   0  0  0  0  0  0  0  0  0  0  0  0
    7.6308    9.1784   -0.0000 C   0  0  0  0  0  0  0  0  0  0  0  0
   11.1308    2.4642   -0.0000 O   0  0  0  0  0  0  0  0  0  0  0  0
   11.0355    5.0713   -0.0000 N   0  0  0  0  0  0  0  0  0  0  0  0
    8.9403    8.4641   -0.0000 C   0  0  0  0  0  0  0  0  0  0  0  0
   12.4641    5.4404   -0.0000 C   0  0  0  0  0  0  0  0  0  0  0  0
   10.2260    6.3570   -0.0000 C   0  0  0  0  0  0  0  0  0  0  0  0
   12.5712    6.9523   -0.0000 C   0  0  0  0  0  0  0  0  0  0  0  0
   11.1665    7.5118   -0.0000 C   0  0  0  0  0  0  0  0  0  0  0  0
  1  2  2  0  0  0  0
  2  3  1  0  0  0  0
  2  4  1  0  0  0  0
  4  5  2  0  0  0  0
  4  6  1  0  0  0  0
  5  7  1  0  0  0  0
  6  8  2  0  0  0  0
  7  9  2  0  0  0  0
  9 10  1  0  0  0  0
 10 11  1  0  0  0  0
 10 12  1  0  0  0  0
 11 13  2  0  0  0  0
 11 14  1  0  0  0  0
 12 15  1  0  0  0  0
 13 16  1  0  0  0  0
 14 17  2  0  0  0  0
 15 18  2  0  0  0  0
 15 19  1  0  0  0  0
 16 20  1  0  0  0  0
 17 21  1  0  0  0  0
 18 22  1  0  0  0  0
 19 23  2  0  0  0  0
 21 24  2  0  0  0  0
 21 25  1  0  0  0  0
 22 26  2  0  0  0  0
 25 27  1  0  0  0  0
 25 28  1  0  0  0  0
 27 29  1  0  0  0  0
 28 30  1  0  0  0  0
  8  9  1  0  0  0  0
 16 17  1  0  0  0  0
 23 26  1  0  0  0  0
 29 30  1  0  0  0  0
M  CHG  2   2   1   3  -1
M  END
>  <MolRegNo>
468133

>  <m>
=

>  <Value>
110

>  <Unit>
nM

>  <Type>
Ki

>  <pValue>
6.96

>  <Ligand Efficiency>
0.32

>  <Binding Efficiency>
17.2

>  <Surface Efficiency>
9.72

>  <Assay Index>
336391

>  <Assay Category>


>  <Assay Organism>
Homo sapiens

>  <Target ID>
56

>  <Target Name>
Androgen Receptor

>  <Target Organism>
Homo sapiens

>  <Target Description>
Target is a single protein chain

>  <Sequence Accession>
P10275

>  <Reference>
Bioorg Med Chem 16 (14), 6799-6812 (2008)

>  <Pubmed ID>
18571420

>  <DOI>
10.1016/j.bmc.2008.05.063

$$$$
468132
Actelion Java MolfileCreator 1.0

 30 33  0  0  0  0  0  0  0  0999 V2000
    0.0000   -0.0000   -0.0000 O   0  0  0  0  0  0  0  0  0  0  0  0
   -0.0119    1.5119   -0.0000 N   0  0  0  0  0  0  0  0  0  0  0  0
   -1.3214    2.2738   -0.0000 O   0  0  0  0  0  0  0  0  0  0  0  0
    1.2738    2.2857   -0.0000 C   0  0  0  0  0  0  0  0  0  0  0  0
    2.5595    1.5476   -0.0000 C   0  0  0  0  0  0  0  0  0  0  0  0
    1.2619    3.8095   -0.0000 C   0  0  0  0  0  0  0  0  0  0  0  0
    3.8452    2.3095   -0.0000 C   0  0  0  0  0  0  0  0  0  0  0  0
    2.5595    4.5714   -0.0000 C   0  0  0  0  0  0  0  0  0  0  0  0
    3.8333    3.8333   -0.0000 C   0  0  0  0  0  0  0  0  0  0  0  0
    5.1309    4.6190   -0.0000 N   0  0  0  0  0  0  0  0  0  0  0  0
    6.4404    3.8809   -0.0000 C   0  0  0  0  0  0  0  0  0  0  0  0
    5.1071    6.1309   -0.0000 C   0  0  0  0  0  0  0  0  0  0  0  0
    6.7618    2.4285   -0.0000 C   0  0  0  0  0  0  0  0  0  0  0  0
    7.7261    4.6547   -0.0000 C   0  0  0  0  0  0  0  0  0  0  0  0
    6.3928    6.9046   -0.0000 C   0  0  0  0  0  0  0  0  0  0  0  0
    8.2380    2.2976   -0.0000 N   0  0  0  0  0  0  0  0  0  0  0  0
    8.8451    3.6666   -0.0000 C   0  0  0  0  0  0  0  0  0  0  0  0
    7.6784    6.1785   -0.0000 C   0  0  0  0  0  0  0  0  0  0  0  0
    6.3570    8.4046   -0.0000 C   0  0  0  0  0  0  0  0  0  0  0  0
    8.9999    1.0119   -0.0000 C   0  0  0  0  0  0  0  0  0  0  0  0
   10.3451    3.7261   -0.0000 C   0  0  0  0  0  0  0  0  0  0  0  0
    8.9641    6.9523   -0.0000 C   0  0  0  0  0  0  0  0  0  0  0  0
    7.6308    9.1784   -0.0000 C   0  0  0  0  0  0  0  0  0  0  0  0
   11.1308    2.4642   -0.0000 O   0  0  0  0  0  0  0  0  0  0  0  0
   11.0355    5.0713   -0.0000 N   0  0  0  0  0  0  0  0  0  0  0  0
    8.9403    8.4641   -0.0000 C   0  0  0  0  0  0  0  0  0  0  0  0
   12.4641    5.4404   -0.0000 C   0  0  0  0  0  0  0  0  0  0  0  0
   10.2260    6.3570   -0.0000 C   0  0  0  0  0  0  0  0  0  0  0  0
   12.5712    6.9523   -0.0000 C   0  0  0  0  0  0  0  0  0  0  0  0
   11.1665    7.5118   -0.0000 C   0  0  0  0  0  0  0  0  0  0  0  0
  1  2  2  0  0  0  0
  2  3  1  0  0  0  0
  2  4  1  0  0  0  0
  4  5  2  0  0  0  0
  4  6  1  0  0  0  0
  5  7  1  0  0  0  0
  6  8  2  0  0  0  0
  7  9  2  0  0  0  0
  9 10  1  0  0  0  0
 10 11  1  0  0  0  0
 10 12  1  0  0  0  0
 11 13  2  0  0  0  0
 11 14  1  0  0  0  0
 12 15  1  0  0  0  0
 13 16  1  0  0  0  0
 14 17  2  0  0  0  0
 15 18  1  0  0  0  0
 15 19  1  0  0  0  0
 16 20  1  0  0  0  0
 17 21  1  0  0  0  0
 18 22  1  0  0  0  0
 19 23  1  0  0  0  0
 21 24  2  0  0  0  0
 21 25  1  0  0  0  0
 22 26  1  0  0  0  0
 25 27  1  0  0  0  0
 25 28  1  0  0  0  0
 27 29  1  0  0  0  0
 28 30  1  0  0  0  0
  8  9  1  0  0  0  0
 16 17  1  0  0  0  0
 23 26  1  0  0  0  0
 29 30  1  0  0  0  0
M  CHG  2   2   1   3  -1
M  END
>  <MolRegNo>
468132

>  <m>
=

>  <Value>
520

>  <Unit>
nM

>  <Type>
Ki

>  <pValue>
6.28

>  <Ligand Efficiency>
0.29

>  <Binding Efficiency>
15.31

>  <Surface Efficiency>
8.77

>  <Assay Index>
336391

>  <Assay Category>


>  <Assay Organism>
Homo sapiens

>  <Target ID>
56

>  <Target Name>
Androgen Receptor

>  <Target Organism>
Homo sapiens

>  <Target Description>
Target is a single protein chain

>  <Sequence Accession>
P10275

>  <Reference>
Bioorg Med Chem 16 (14), 6799-6812 (2008)

>  <Pubmed ID>
18571420

>  <DOI>
10.1016/j.bmc.2008.05.063

$$$$
468131
Actelion Java MolfileCreator 1.0

 26 28  0  0  0  0  0  0  0  0999 V2000
    0.0000   -0.0000   -0.0000 O   0  0  0  0  0  0  0  0  0  0  0  0
   -0.0119    1.5095   -0.0000 N   0  0  0  0  0  0  0  0  0  0  0  0
   -1.3312    2.2702   -0.0000 O   0  0  0  0  0  0  0  0  0  0  0  0
    1.2718    2.2821   -0.0000 C   0  0  0  0  0  0  0  0  0  0  0  0
    2.5555    1.5452   -0.0000 C   0  0  0  0  0  0  0  0  0  0  0  0
    1.2599    3.8035   -0.0000 C   0  0  0  0  0  0  0  0  0  0  0  0
    3.8392    2.3059   -0.0000 C   0  0  0  0  0  0  0  0  0  0  0  0
    2.5555    4.5642   -0.0000 C   0  0  0  0  0  0  0  0  0  0  0  0
    3.8273    3.8273   -0.0000 C   0  0  0  0  0  0  0  0  0  0  0  0
    5.1229    4.6118   -0.0000 N   0  0  0  0  0  0  0  0  0  0  0  0
    6.4303    3.8748   -0.0000 C   0  0  0  0  0  0  0  0  0  0  0  0
    5.0991    6.1213   -0.0000 C   0  0  0  0  0  0  0  0  0  0  0  0
    6.7513    2.4247   -0.0000 C   0  0  0  0  0  0  0  0  0  0  0  0
    7.7140    4.6474   -0.0000 C   0  0  0  0  0  0  0  0  0  0  0  0
    6.3828    6.8939   -0.0000 C   0  0  0  0  0  0  0  0  0  0  0  0
    3.7798    6.8701   -0.0000 C   0  0  0  0  0  0  0  0  0  0  0  0
    8.2251    2.2940   -0.0000 N   0  0  0  0  0  0  0  0  0  0  0  0
    8.8313    3.6609   -0.0000 C   0  0  0  0  0  0  0  0  0  0  0  0
    8.9858    1.0103   -0.0000 C   0  0  0  0  0  0  0  0  0  0  0  0
   10.3290    3.7203   -0.0000 C   0  0  0  0  0  0  0  0  0  0  0  0
   11.1134    2.4604   -0.0000 O   0  0  0  0  0  0  0  0  0  0  0  0
   11.0183    5.0634   -0.0000 N   0  0  0  0  0  0  0  0  0  0  0  0
   12.4447    5.4319   -0.0000 C   0  0  0  0  0  0  0  0  0  0  0  0
   10.2101    6.3471   -0.0000 C   0  0  0  0  0  0  0  0  0  0  0  0
   12.5516    6.9533   -0.0000 C   0  0  0  0  0  0  0  0  0  0  0  0
   11.1491    7.5001   -0.0000 C   0  0  0  0  0  0  0  0  0  0  0  0
  1  2  2  0  0  0  0
  2  3  1  0  0  0  0
  2  4  1  0  0  0  0
  4  5  2  0  0  0  0
  4  6  1  0  0  0  0
  5  7  1  0  0  0  0
  6  8  2  0  0  0  0
  7  9  2  0  0  0  0
  9 10  1  0  0  0  0
 10 11  1  0  0  0  0
 10 12  1  0  0  0  0
 11 13  2  0  0  0  0
 11 14  1  0  0  0  0
 12 15  1  0  0  0  0
 12 16  1  0  0  0  0
 13 17  1  0  0  0  0
 14 18  2  0  0  0  0
 17 19  1  0  0  0  0
 18 20  1  0  0  0  0
 20 21  2  0  0  0  0
 20 22  1  0  0  0  0
 22 23  1  0  0  0  0
 22 24  1  0  0  0  0
 23 25  1  0  0  0  0
 24 26  1  0  0  0  0
  8  9  1  0  0  0  0
 17 18  1  0  0  0  0
 25 26  1  0  0  0  0
M  CHG  2   2   1   3  -1
M  END
>  <MolRegNo>
468131

>  <m>
=

>  <Value>
3400

>  <Unit>
nM

>  <Type>
Ki

>  <pValue>
5.47

>  <Ligand Efficiency>
0.29

>  <Binding Efficiency>
15.34

>  <Surface Efficiency>
7.64

>  <Assay Index>
336391

>  <Assay Category>


>  <Assay Organism>
Homo sapiens

>  <Target ID>
56

>  <Target Name>
Androgen Receptor

>  <Target Organism>
Homo sapiens

>  <Target Description>
Target is a single protein chain

>  <Sequence Accession>
P10275

>  <Reference>
Bioorg Med Chem 16 (14), 6799-6812 (2008)

>  <Pubmed ID>
18571420

>  <DOI>
10.1016/j.bmc.2008.05.063

$$$$
468130
Actelion Java MolfileCreator 1.0

 25 27  0  0  0  0  0  0  0  0999 V2000
    0.0000   -0.0000   -0.0000 O   0  0  0  0  0  0  0  0  0  0  0  0
   -0.0119    1.5110   -0.0000 N   0  0  0  0  0  0  0  0  0  0  0  0
   -1.3207    2.2725   -0.0000 O   0  0  0  0  0  0  0  0  0  0  0  0
    1.2731    2.2844   -0.0000 C   0  0  0  0  0  0  0  0  0  0  0  0
    2.5581    1.5467   -0.0000 C   0  0  0  0  0  0  0  0  0  0  0  0
    1.2612    3.8074   -0.0000 C   0  0  0  0  0  0  0  0  0  0  0  0
    3.8430    2.3082   -0.0000 C   0  0  0  0  0  0  0  0  0  0  0  0
    2.5581    4.5688   -0.0000 C   0  0  0  0  0  0  0  0  0  0  0  0
    3.8312    3.8193   -0.0000 C   0  0  0  0  0  0  0  0  0  0  0  0
    5.1280    4.6045   -0.0000 N   0  0  0  0  0  0  0  0  0  0  0  0
    6.4368    3.8668   -0.0000 C   0  0  0  0  0  0  0  0  0  0  0  0
    5.1042    6.1156   -0.0000 C   0  0  0  0  0  0  0  0  0  0  0  0
    6.7581    2.4153   -0.0000 C   0  0  0  0  0  0  0  0  0  0  0  0
    7.7218    4.6402   -0.0000 C   0  0  0  0  0  0  0  0  0  0  0  0
    6.3892    6.8889   -0.0000 C   0  0  0  0  0  0  0  0  0  0  0  0
    8.2334    2.2844   -0.0000 N   0  0  0  0  0  0  0  0  0  0  0  0
    8.8402    3.6527   -0.0000 C   0  0  0  0  0  0  0  0  0  0  0  0
    8.9949    0.9994   -0.0000 C   0  0  0  0  0  0  0  0  0  0  0  0
   10.3393    3.7122   -0.0000 C   0  0  0  0  0  0  0  0  0  0  0  0
   11.1246    2.4510   -0.0000 O   0  0  0  0  0  0  0  0  0  0  0  0
   11.0294    5.0566   -0.0000 N   0  0  0  0  0  0  0  0  0  0  0  0
   12.4572    5.4255   -0.0000 C   0  0  0  0  0  0  0  0  0  0  0  0
   10.2204    6.3416   -0.0000 C   0  0  0  0  0  0  0  0  0  0  0  0
   12.5643    6.9365   -0.0000 C   0  0  0  0  0  0  0  0  0  0  0  0
   11.1603    7.4957   -0.0000 C   0  0  0  0  0  0  0  0  0  0  0  0
  1  2  2  0  0  0  0
  2  3  1  0  0  0  0
  2  4  1  0  0  0  0
  4  5  2  0  0  0  0
  4  6  1  0  0  0  0
  5  7  1  0  0  0  0
  6  8  2  0  0  0  0
  7  9  2  0  0  0  0
  9 10  1  0  0  0  0
 10 11  1  0  0  0  0
 10 12  1  0  0  0  0
 11 13  2  0  0  0  0
 11 14  1  0  0  0  0
 12 15  1  0  0  0  0
 13 16  1  0  0  0  0
 14 17  2  0  0  0  0
 16 18  1  0  0  0  0
 17 19  1  0  0  0  0
 19 20  2  0  0  0  0
 19 21  1  0  0  0  0
 21 22  1  0  0  0  0
 21 23  1  0  0  0  0
 22 24  1  0  0  0  0
 23 25  1  0  0  0  0
  8  9  1  0  0  0  0
 16 17  1  0  0  0  0
 24 25  1  0  0  0  0
M  CHG  2   2   1   3  -1
M  END
>  <MolRegNo>
468130

>  <m>
=

>  <Value>
2000

>  <Unit>
nM

>  <Type>
Ki

>  <pValue>
5.7

>  <Ligand Efficiency>
0.31

>  <Binding Efficiency>
16.64

>  <Surface Efficiency>
7.96

>  <Assay Index>
336391

>  <Assay Category>


>  <Assay Organism>
Homo sapiens

>  <Target ID>
56

>  <Target Name>
Androgen Receptor

>  <Target Organism>
Homo sapiens

>  <Target Description>
Target is a single protein chain

>  <Sequence Accession>
P10275

>  <Reference>
Bioorg Med Chem 16 (14), 6799-6812 (2008)

>  <Pubmed ID>
18571420

>  <DOI>
10.1016/j.bmc.2008.05.063

$$$$
468068
Actelion Java MolfileCreator 1.0

 24 26  0  0  0  0  0  0  0  0999 V2000
    0.0000   -0.0000   -0.0000 O   0  0  0  0  0  0  0  0  0  0  0  0
   -0.0119    1.5104   -0.0000 N   0  0  0  0  0  0  0  0  0  0  0  0
   -1.3320    2.2716   -0.0000 O   0  0  0  0  0  0  0  0  0  0  0  0
    1.2725    2.2835   -0.0000 C   0  0  0  0  0  0  0  0  0  0  0  0
    2.5570    1.5461   -0.0000 C   0  0  0  0  0  0  0  0  0  0  0  0
    1.2607    3.8058   -0.0000 C   0  0  0  0  0  0  0  0  0  0  0  0
    3.8414    2.3072   -0.0000 C   0  0  0  0  0  0  0  0  0  0  0  0
    2.5570    4.5669   -0.0000 C   0  0  0  0  0  0  0  0  0  0  0  0
    3.8295    3.8295   -0.0000 C   0  0  0  0  0  0  0  0  0  0  0  0
    5.1259    4.6145   -0.0000 N   0  0  0  0  0  0  0  0  0  0  0  0
    6.4341    3.8771   -0.0000 C   0  0  0  0  0  0  0  0  0  0  0  0
    5.1021    6.1249   -0.0000 C   0  0  0  0  0  0  0  0  0  0  0  0
    6.7552    2.4262   -0.0000 C   0  0  0  0  0  0  0  0  0  0  0  0
    7.7185    4.6502   -0.0000 C   0  0  0  0  0  0  0  0  0  0  0  0
    8.2299    2.2953   -0.0000 N   0  0  0  0  0  0  0  0  0  0  0  0
    8.8365    3.6630   -0.0000 C   0  0  0  0  0  0  0  0  0  0  0  0
    8.9911    1.0109   -0.0000 C   0  0  0  0  0  0  0  0  0  0  0  0
   10.3350    3.7225   -0.0000 C   0  0  0  0  0  0  0  0  0  0  0  0
   11.1199    2.4618   -0.0000 O   0  0  0  0  0  0  0  0  0  0  0  0
   11.0248    5.0664   -0.0000 N   0  0  0  0  0  0  0  0  0  0  0  0
   12.4519    5.4351   -0.0000 C   0  0  0  0  0  0  0  0  0  0  0  0
   10.2161    6.3508   -0.0000 C   0  0  0  0  0  0  0  0  0  0  0  0
   12.5590    6.9455   -0.0000 C   0  0  0  0  0  0  0  0  0  0  0  0
   11.1556    7.5045   -0.0000 C   0  0  0  0  0  0  0  0  0  0  0  0
  1  2  2  0  0  0  0
  2  3  1  0  0  0  0
  2  4  1  0  0  0  0
  4  5  2  0  0  0  0
  4  6  1  0  0  0  0
  5  7  1  0  0  0  0
  6  8  2  0  0  0  0
  7  9  2  0  0  0  0
  9 10  1  0  0  0  0
 10 11  1  0  0  0  0
 10 12  1  0  0  0  0
 11 13  2  0  0  0  0
 11 14  1  0  0  0  0
 13 15  1  0  0  0  0
 14 16  2  0  0  0  0
 15 17  1  0  0  0  0
 16 18  1  0  0  0  0
 18 19  2  0  0  0  0
 18 20  1  0  0  0  0
 20 21  1  0  0  0  0
 20 22  1  0  0  0  0
 21 23  1  0  0  0  0
 22 24  1  0  0  0  0
  8  9  1  0  0  0  0
 15 16  1  0  0  0  0
 23 24  1  0  0  0  0
M  CHG  2   2   1   3  -1
M  END
>  <MolRegNo>
468068

>  <m>
=

>  <Value>
3600

>  <Unit>
nM

>  <Type>
Ki

>  <pValue>
5.44

>  <Ligand Efficiency>
0.31

>  <Binding Efficiency>
16.58

>  <Surface Efficiency>
7.6

>  <Assay Index>
336391

>  <Assay Category>


>  <Assay Organism>
Homo sapiens

>  <Target ID>
56

>  <Target Name>
Androgen Receptor

>  <Target Organism>
Homo sapiens

>  <Target Description>
Target is a single protein chain

>  <Sequence Accession>
P10275

>  <Reference>
Bioorg Med Chem 16 (14), 6799-6812 (2008)

>  <Pubmed ID>
18571420

>  <DOI>
10.1016/j.bmc.2008.05.063

$$$$
468067
Actelion Java MolfileCreator 1.0

 31 34  0  0  0  0  0  0  0  0999 V2000
    0.0000   -0.0000   -0.0000 O   0  0  0  0  0  0  0  0  0  0  0  0
   -0.8046    1.2779   -0.0000 C   0  0  0  0  0  0  0  0  0  0  0  0
   -0.1065    2.6150   -0.0000 N   0  0  0  0  0  0  0  0  0  0  0  0
   -2.3192    1.2424   -0.0000 C   0  0  0  0  0  0  0  0  0  0  0  0
    1.3134    2.9818   -0.0000 C   0  0  0  0  0  0  0  0  0  0  0  0
   -0.9111    3.8929   -0.0000 C   0  0  0  0  0  0  0  0  0  0  0  0
   -2.9345   -0.1183   -0.0000 N   0  0  0  0  0  0  0  0  0  0  0  0
   -3.4551    2.2482   -0.0000 C   0  0  0  0  0  0  0  0  0  0  0  0
    1.4199    4.4964   -0.0000 C   0  0  0  0  0  0  0  0  0  0  0  0
    0.0237    5.0407   -0.0000 C   0  0  0  0  0  0  0  0  0  0  0  0
   -4.4254    0.0355   -0.0000 C   0  0  0  0  0  0  0  0  0  0  0  0
   -2.1772   -1.3963   -0.0000 C   0  0  0  0  0  0  0  0  0  0  0  0
   -4.7567    1.5027   -0.0000 C   0  0  0  0  0  0  0  0  0  0  0  0
   -6.0820    2.2600   -0.0000 N   0  0  0  0  0  0  0  0  0  0  0  0
   -7.3954    1.5027   -0.0000 C   0  0  0  0  0  0  0  0  0  0  0  0
   -6.1056    3.7628   -0.0000 C   0  0  0  0  0  0  0  0  0  0  0  0
   -7.4072    0.0118   -0.0000 C   0  0  0  0  0  0  0  0  0  0  0  0
   -8.6970    2.2600   -0.0000 C   0  0  0  0  0  0  0  0  0  0  0  0
   -4.8277    4.5319   -0.0000 C   0  0  0  0  0  0  0  0  0  0  0  0
   -8.7088   -0.7218   -0.0000 C   0  0  0  0  0  0  0  0  0  0  0  0
  -10.0104    1.5264   -0.0000 C   0  0  0  0  0  0  0  0  0  0  0  0
   -3.5498    3.7983   -0.0000 C   0  0  0  0  0  0  0  0  0  0  0  0
   -4.8632    6.0346   -0.0000 C   0  0  0  0  0  0  0  0  0  0  0  0
  -10.0222    0.0355   -0.0000 C   0  0  0  0  0  0  0  0  0  0  0  0
   -8.7207   -2.2009   -0.0000 C   0  0  0  0  0  0  0  0  0  0  0  0
  -11.3238    2.2955   -0.0000 C   0  0  0  0  0  0  0  0  0  0  0  0
   -2.2719    4.5674   -0.0000 C   0  0  0  0  0  0  0  0  0  0  0  0
   -3.5971    6.8156   -0.0000 C   0  0  0  0  0  0  0  0  0  0  0  0
   -2.2955    6.0701   -0.0000 C   0  0  0  0  0  0  0  0  0  0  0  0
   -1.0176    6.8393   -0.0000 C   0  0  0  0  0  0  0  0  0  0  0  0
   -1.0413    8.3420   -0.0000 O   0  0  0  0  0  0  0  0  0  0  0  0
  1  2  2  0  0  0  0
  2  3  1  0  0  0  0
  2  4  1  0  0  0  0
  3  5  1  0  0  0  0
  3  6  1  0  0  0  0
  4  7  1  0  0  0  0
  4  8  2  0  0  0  0
  5  9  1  0  0  0  0
  6 10  1  0  0  0  0
  7 11  1  0  0  0  0
  7 12  1  0  0  0  0
  8 13  1  0  0  0  0
 13 14  1  0  0  0  0
 14 15  1  0  0  0  0
 14 16  1  0  0  0  0
 15 17  2  0  0  0  0
 15 18  1  0  0  0  0
 16 19  1  0  0  0  0
 17 20  1  0  0  0  0
 18 21  2  0  0  0  0
 19 22  2  0  0  0  0
 19 23  1  0  0  0  0
 20 24  2  0  0  0  0
 20 25  1  0  0  0  0
 21 26  1  0  0  0  0
 22 27  1  0  0  0  0
 23 28  2  0  0  0  0
 27 29  2  0  0  0  0
 29 30  1  0  0  0  0
 30 31  1  0  0  0  0
  9 10  1  0  0  0  0
 11 13  2  0  0  0  0
 21 24  1  0  0  0  0
 28 29  1  0  0  0  0
M  END
>  <MolRegNo>
468067

>  <m>
=

>  <Value>
2200

>  <Unit>
nM

>  <Type>
Ki

>  <pValue>
5.66

>  <Ligand Efficiency>
0.25

>  <Binding Efficiency>
13.55

>  <Surface Efficiency>
11.61

>  <Assay Index>
336391

>  <Assay Category>


>  <Assay Organism>
Homo sapiens

>  <Target ID>
56

>  <Target Name>
Androgen Receptor

>  <Target Organism>
Homo sapiens

>  <Target Description>
Target is a single protein chain

>  <Sequence Accession>
P10275

>  <Reference>
Bioorg Med Chem 16 (14), 6799-6812 (2008)

>  <Pubmed ID>
18571420

>  <DOI>
10.1016/j.bmc.2008.05.063

$$$$
468066
Actelion Java MolfileCreator 1.0

 30 33  0  0  0  0  0  0  0  0999 V2000
    0.0000   -0.0000   -0.0000 O   0  0  0  0  0  0  0  0  0  0  0  0
   -0.8045    1.2777   -0.0000 C   0  0  0  0  0  0  0  0  0  0  0  0
   -0.1065    2.6146   -0.0000 N   0  0  0  0  0  0  0  0  0  0  0  0
   -2.3189    1.2422   -0.0000 C   0  0  0  0  0  0  0  0  0  0  0  0
    1.3132    2.9814   -0.0000 C   0  0  0  0  0  0  0  0  0  0  0  0
   -0.9110    3.8924   -0.0000 C   0  0  0  0  0  0  0  0  0  0  0  0
   -2.9341   -0.1183   -0.0000 N   0  0  0  0  0  0  0  0  0  0  0  0
   -3.4546    2.2479   -0.0000 C   0  0  0  0  0  0  0  0  0  0  0  0
    1.4197    4.4957   -0.0000 C   0  0  0  0  0  0  0  0  0  0  0  0
    0.0237    5.0400   -0.0000 C   0  0  0  0  0  0  0  0  0  0  0  0
   -4.4248    0.0355   -0.0000 C   0  0  0  0  0  0  0  0  0  0  0  0
   -2.1769   -1.3960   -0.0000 C   0  0  0  0  0  0  0  0  0  0  0  0
   -4.7560    1.5025   -0.0000 C   0  0  0  0  0  0  0  0  0  0  0  0
   -6.0811    2.2597   -0.0000 N   0  0  0  0  0  0  0  0  0  0  0  0
   -7.3943    1.5025   -0.0000 C   0  0  0  0  0  0  0  0  0  0  0  0
   -6.1047    3.7622   -0.0000 C   0  0  0  0  0  0  0  0  0  0  0  0
   -7.4061    0.0118   -0.0000 C   0  0  0  0  0  0  0  0  0  0  0  0
   -8.6957    2.2597   -0.0000 C   0  0  0  0  0  0  0  0  0  0  0  0
   -4.8270    4.5312   -0.0000 C   0  0  0  0  0  0  0  0  0  0  0  0
   -8.7075   -0.7217   -0.0000 C   0  0  0  0  0  0  0  0  0  0  0  0
  -10.0089    1.5262   -0.0000 C   0  0  0  0  0  0  0  0  0  0  0  0
   -3.5493    3.7977   -0.0000 C   0  0  0  0  0  0  0  0  0  0  0  0
   -4.8625    6.0338   -0.0000 C   0  0  0  0  0  0  0  0  0  0  0  0
  -10.0208    0.0355   -0.0000 C   0  0  0  0  0  0  0  0  0  0  0  0
   -8.7194   -2.2005   -0.0000 C   0  0  0  0  0  0  0  0  0  0  0  0
  -11.3340    2.2952   -0.0000 C   0  0  0  0  0  0  0  0  0  0  0  0
   -2.2715    4.5667   -0.0000 C   0  0  0  0  0  0  0  0  0  0  0  0
   -3.5966    6.8146   -0.0000 C   0  0  0  0  0  0  0  0  0  0  0  0
   -2.2952    6.0693   -0.0000 C   0  0  0  0  0  0  0  0  0  0  0  0
   -1.0175    6.8383   -0.0000 O   0  0  0  0  0  0  0  0  0  0  0  0
  1  2  2  0  0  0  0
  2  3  1  0  0  0  0
  2  4  1  0  0  0  0
  3  5  1  0  0  0  0
  3  6  1  0  0  0  0
  4  7  1  0  0  0  0
  4  8  2  0  0  0  0
  5  9  1  0  0  0  0
  6 10  1  0  0  0  0
  7 11  1  0  0  0  0
  7 12  1  0  0  0  0
  8 13  1  0  0  0  0
 13 14  1  0  0  0  0
 14 15  1  0  0  0  0
 14 16  1  0  0  0  0
 15 17  2  0  0  0  0
 15 18  1  0  0  0  0
 16 19  1  0  0  0  0
 17 20  1  0  0  0  0
 18 21  2  0  0  0  0
 19 22  2  0  0  0  0
 19 23  1  0  0  0  0
 20 24  2  0  0  0  0
 20 25  1  0  0  0  0
 21 26  1  0  0  0  0
 22 27  1  0  0  0  0
 23 28  2  0  0  0  0
 27 29  2  0  0  0  0
 29 30  1  0  0  0  0
  9 10  1  0  0  0  0
 11 13  2  0  0  0  0
 21 24  1  0  0  0  0
 28 29  1  0  0  0  0
M  END
>  <MolRegNo>
468066

>  <m>
=

>  <Value>
690

>  <Unit>
nM

>  <Type>
Ki

>  <pValue>
6.16

>  <Ligand Efficiency>
0.28

>  <Binding Efficiency>
15.27

>  <Surface Efficiency>
12.65

>  <Assay Index>
336391

>  <Assay Category>


>  <Assay Organism>
Homo sapiens

>  <Target ID>
56

>  <Target Name>
Androgen Receptor

>  <Target Organism>
Homo sapiens

>  <Target Description>
Target is a single protein chain

>  <Sequence Accession>
P10275

>  <Reference>
Bioorg Med Chem 16 (14), 6799-6812 (2008)

>  <Pubmed ID>
18571420

>  <DOI>
10.1016/j.bmc.2008.05.063

$$$$
468065
Actelion Java MolfileCreator 1.0

 29 32  0  0  0  0  0  0  0  0999 V2000
    0.0000   -0.0000   -0.0000 O   0  0  0  0  0  0  0  0  0  0  0  0
   -0.8045    1.2778   -0.0000 C   0  0  0  0  0  0  0  0  0  0  0  0
   -0.1065    2.6147   -0.0000 N   0  0  0  0  0  0  0  0  0  0  0  0
   -2.3189    1.2423   -0.0000 C   0  0  0  0  0  0  0  0  0  0  0  0
    1.3133    2.9815   -0.0000 C   0  0  0  0  0  0  0  0  0  0  0  0
   -0.9110    3.8925   -0.0000 C   0  0  0  0  0  0  0  0  0  0  0  0
   -2.9342   -0.1183   -0.0000 N   0  0  0  0  0  0  0  0  0  0  0  0
   -3.4547    2.2479   -0.0000 C   0  0  0  0  0  0  0  0  0  0  0  0
    1.4198    4.4959   -0.0000 C   0  0  0  0  0  0  0  0  0  0  0  0
    0.0237    5.0401   -0.0000 C   0  0  0  0  0  0  0  0  0  0  0  0
   -4.4249    0.0355   -0.0000 C   0  0  0  0  0  0  0  0  0  0  0  0
   -2.1770   -1.3961   -0.0000 C   0  0  0  0  0  0  0  0  0  0  0  0
   -4.7562    1.5026   -0.0000 C   0  0  0  0  0  0  0  0  0  0  0  0
   -6.0813    2.2598   -0.0000 N   0  0  0  0  0  0  0  0  0  0  0  0
   -7.3945    1.5026   -0.0000 C   0  0  0  0  0  0  0  0  0  0  0  0
   -6.1049    3.7623   -0.0000 C   0  0  0  0  0  0  0  0  0  0  0  0
   -7.4064    0.0118   -0.0000 C   0  0  0  0  0  0  0  0  0  0  0  0
   -8.6960    2.2598   -0.0000 C   0  0  0  0  0  0  0  0  0  0  0  0
   -4.8272    4.5314   -0.0000 C   0  0  0  0  0  0  0  0  0  0  0  0
   -8.7078   -0.7217   -0.0000 C   0  0  0  0  0  0  0  0  0  0  0  0
  -10.0093    1.5262   -0.0000 C   0  0  0  0  0  0  0  0  0  0  0  0
   -3.5494    3.7978   -0.0000 C   0  0  0  0  0  0  0  0  0  0  0  0
   -4.8627    6.0339   -0.0000 C   0  0  0  0  0  0  0  0  0  0  0  0
  -10.0211    0.0355   -0.0000 C   0  0  0  0  0  0  0  0  0  0  0  0
   -8.7196   -2.2006   -0.0000 C   0  0  0  0  0  0  0  0  0  0  0  0
  -11.3225    2.2953   -0.0000 C   0  0  0  0  0  0  0  0  0  0  0  0
   -2.2716    4.5669   -0.0000 C   0  0  0  0  0  0  0  0  0  0  0  0
   -3.5967    6.8148   -0.0000 C   0  0  0  0  0  0  0  0  0  0  0  0
   -2.2953    6.0694   -0.0000 C   0  0  0  0  0  0  0  0  0  0  0  0
  1  2  2  0  0  0  0
  2  3  1  0  0  0  0
  2  4  1  0  0  0  0
  3  5  1  0  0  0  0
  3  6  1  0  0  0  0
  4  7  1  0  0  0  0
  4  8  2  0  0  0  0
  5  9  1  0  0  0  0
  6 10  1  0  0  0  0
  7 11  1  0  0  0  0
  7 12  1  0  0  0  0
  8 13  1  0  0  0  0
 13 14  1  0  0  0  0
 14 15  1  0  0  0  0
 14 16  1  0  0  0  0
 15 17  2  0  0  0  0
 15 18  1  0  0  0  0
 16 19  1  0  0  0  0
 17 20  1  0  0  0  0
 18 21  2  0  0  0  0
 19 22  2  0  0  0  0
 19 23  1  0  0  0  0
 20 24  2  0  0  0  0
 20 25  1  0  0  0  0
 21 26  1  0  0  0  0
 22 27  1  0  0  0  0
 23 28  2  0  0  0  0
 27 29  2  0  0  0  0
  9 10  1  0  0  0  0
 11 13  2  0  0  0  0
 21 24  1  0  0  0  0
 28 29  1  0  0  0  0
M  END
>  <MolRegNo>
468065

>  <m>
=

>  <Value>
350

>  <Unit>
nM

>  <Type>
Ki

>  <pValue>
6.46

>  <Ligand Efficiency>
0.3

>  <Binding Efficiency>
16.66

>  <Surface Efficiency>
22.67

>  <Assay Index>
336391

>  <Assay Category>


>  <Assay Organism>
Homo sapiens

>  <Target ID>
56

>  <Target Name>
Androgen Receptor

>  <Target Organism>
Homo sapiens

>  <Target Description>
Target is a single protein chain

>  <Sequence Accession>
P10275

>  <Reference>
Bioorg Med Chem 16 (14), 6799-6812 (2008)

>  <Pubmed ID>
18571420

>  <DOI>
10.1016/j.bmc.2008.05.063

$$$$
468064
Actelion Java MolfileCreator 1.0

 29 32  0  0  0  0  0  0  0  0999 V2000
    0.0000   -0.0000   -0.0000 O   0  0  0  0  0  0  0  0  0  0  0  0
   -0.8053    1.2790   -0.0000 C   0  0  0  0  0  0  0  0  0  0  0  0
   -0.1066    2.6171   -0.0000 N   0  0  0  0  0  0  0  0  0  0  0  0
   -2.3211    1.2434   -0.0000 C   0  0  0  0  0  0  0  0  0  0  0  0
    1.3145    2.9842   -0.0000 C   0  0  0  0  0  0  0  0  0  0  0  0
   -0.9118    3.8961   -0.0000 C   0  0  0  0  0  0  0  0  0  0  0  0
   -2.9369   -0.1184   -0.0000 N   0  0  0  0  0  0  0  0  0  0  0  0
   -3.4579    2.2500   -0.0000 C   0  0  0  0  0  0  0  0  0  0  0  0
    1.4211    4.5000   -0.0000 C   0  0  0  0  0  0  0  0  0  0  0  0
    0.0237    5.0448   -0.0000 C   0  0  0  0  0  0  0  0  0  0  0  0
   -4.4290    0.0355   -0.0000 C   0  0  0  0  0  0  0  0  0  0  0  0
   -2.1790   -1.3974   -0.0000 C   0  0  0  0  0  0  0  0  0  0  0  0
   -4.7606    1.5040   -0.0000 C   0  0  0  0  0  0  0  0  0  0  0  0
   -6.0869    2.2619   -0.0000 N   0  0  0  0  0  0  0  0  0  0  0  0
   -7.4014    1.5040   -0.0000 C   0  0  0  0  0  0  0  0  0  0  0  0
   -6.1106    3.7658   -0.0000 C   0  0  0  0  0  0  0  0  0  0  0  0
   -7.4132    0.0118   -0.0000 C   0  0  0  0  0  0  0  0  0  0  0  0
   -8.7040    2.2619   -0.0000 C   0  0  0  0  0  0  0  0  0  0  0  0
   -4.8316    4.5356   -0.0000 C   0  0  0  0  0  0  0  0  0  0  0  0
   -8.7159   -0.7224   -0.0000 C   0  0  0  0  0  0  0  0  0  0  0  0
  -10.0185    1.5276   -0.0000 C   0  0  0  0  0  0  0  0  0  0  0  0
   -3.5527    3.8132   -0.0000 C   0  0  0  0  0  0  0  0  0  0  0  0
   -4.8671    6.0395   -0.0000 C   0  0  0  0  0  0  0  0  0  0  0  0
  -10.0303    0.0355   -0.0000 C   0  0  0  0  0  0  0  0  0  0  0  0
   -8.7277   -2.2026   -0.0000 C   0  0  0  0  0  0  0  0  0  0  0  0
  -11.3330    2.2974   -0.0000 C   0  0  0  0  0  0  0  0  0  0  0  0
   -2.2855    4.5829   -0.0000 C   0  0  0  0  0  0  0  0  0  0  0  0
   -3.5882    6.8093   -0.0000 C   0  0  0  0  0  0  0  0  0  0  0  0
   -2.3092    6.0869   -0.0000 C   0  0  0  0  0  0  0  0  0  0  0  0
  1  2  2  0  0  0  0
  2  3  1  0  0  0  0
  2  4  1  0  0  0  0
  3  5  1  0  0  0  0
  3  6  1  0  0  0  0
  4  7  1  0  0  0  0
  4  8  2  0  0  0  0
  5  9  1  0  0  0  0
  6 10  1  0  0  0  0
  7 11  1  0  0  0  0
  7 12  1  0  0  0  0
  8 13  1  0  0  0  0
 13 14  1  0  0  0  0
 14 15  1  0  0  0  0
 14 16  1  0  0  0  0
 15 17  2  0  0  0  0
 15 18  1  0  0  0  0
 16 19  1  0  0  0  0
 17 20  1  0  0  0  0
 18 21  2  0  0  0  0
 19 22  1  0  0  0  0
 19 23  1  0  0  0  0
 20 24  2  0  0  0  0
 20 25  1  0  0  0  0
 21 26  1  0  0  0  0
 22 27  1  0  0  0  0
 23 28  1  0  0  0  0
 27 29  1  0  0  0  0
  9 10  1  0  0  0  0
 11 13  2  0  0  0  0
 21 24  1  0  0  0  0
 28 29  1  0  0  0  0
M  END
>  <MolRegNo>
468064

>  <m>
=

>  <Value>
490

>  <Unit>
nM

>  <Type>
Ki

>  <pValue>
6.31

>  <Ligand Efficiency>
0.3

>  <Binding Efficiency>
16.03

>  <Surface Efficiency>
22.16

>  <Assay Index>
336391

>  <Assay Category>


>  <Assay Organism>
Homo sapiens

>  <Target ID>
56

>  <Target Name>
Androgen Receptor

>  <Target Organism>
Homo sapiens

>  <Target Description>
Target is a single protein chain

>  <Sequence Accession>
P10275

>  <Reference>
Bioorg Med Chem 16 (14), 6799-6812 (2008)

>  <Pubmed ID>
18571420

>  <DOI>
10.1016/j.bmc.2008.05.063

$$$$
468002
Actelion Java MolfileCreator 1.0

 25 27  0  0  0  0  0  0  0  0999 V2000
    0.0000   -0.0000   -0.0000 O   0  0  0  0  0  0  0  0  0  0  0  0
   -0.8035    1.2761   -0.0000 C   0  0  0  0  0  0  0  0  0  0  0  0
   -0.1063    2.6113   -0.0000 N   0  0  0  0  0  0  0  0  0  0  0  0
   -2.3159    1.2407   -0.0000 C   0  0  0  0  0  0  0  0  0  0  0  0
    1.3116    2.9776   -0.0000 C   0  0  0  0  0  0  0  0  0  0  0  0
   -0.9098    3.8875   -0.0000 C   0  0  0  0  0  0  0  0  0  0  0  0
   -2.9304   -0.1182   -0.0000 N   0  0  0  0  0  0  0  0  0  0  0  0
   -3.4503    2.2450   -0.0000 C   0  0  0  0  0  0  0  0  0  0  0  0
    1.4179    4.4901   -0.0000 C   0  0  0  0  0  0  0  0  0  0  0  0
    0.0236    5.0336   -0.0000 C   0  0  0  0  0  0  0  0  0  0  0  0
   -4.4192    0.0354   -0.0000 C   0  0  0  0  0  0  0  0  0  0  0  0
   -2.1741   -1.3943   -0.0000 C   0  0  0  0  0  0  0  0  0  0  0  0
   -4.7500    1.5006   -0.0000 C   0  0  0  0  0  0  0  0  0  0  0  0
   -6.0734    2.2569   -0.0000 N   0  0  0  0  0  0  0  0  0  0  0  0
   -7.3850    1.5006   -0.0000 C   0  0  0  0  0  0  0  0  0  0  0  0
   -6.0970    3.7575   -0.0000 C   0  0  0  0  0  0  0  0  0  0  0  0
   -7.3968    0.0118   -0.0000 C   0  0  0  0  0  0  0  0  0  0  0  0
   -8.6847    2.2569   -0.0000 C   0  0  0  0  0  0  0  0  0  0  0  0
   -4.8209    4.5255   -0.0000 C   0  0  0  0  0  0  0  0  0  0  0  0
   -7.4086    4.5019   -0.0000 C   0  0  0  0  0  0  0  0  0  0  0  0
   -8.6966   -0.7208   -0.0000 C   0  0  0  0  0  0  0  0  0  0  0  0
   -9.9963    1.5243   -0.0000 C   0  0  0  0  0  0  0  0  0  0  0  0
  -10.0081    0.0354   -0.0000 C   0  0  0  0  0  0  0  0  0  0  0  0
   -8.7084   -2.1978   -0.0000 C   0  0  0  0  0  0  0  0  0  0  0  0
  -11.3079    2.2923   -0.0000 C   0  0  0  0  0  0  0  0  0  0  0  0
  1  2  2  0  0  0  0
  2  3  1  0  0  0  0
  2  4  1  0  0  0  0
  3  5  1  0  0  0  0
  3  6  1  0  0  0  0
  4  7  1  0  0  0  0
  4  8  2  0  0  0  0
  5  9  1  0  0  0  0
  6 10  1  0  0  0  0
  7 11  1  0  0  0  0
  7 12  1  0  0  0  0
  8 13  1  0  0  0  0
 13 14  1  0  0  0  0
 14 15  1  0  0  0  0
 14 16  1  0  0  0  0
 15 17  2  0  0  0  0
 15 18  1  0  0  0  0
 16 19  1  0  0  0  0
 16 20  1  0  0  0  0
 17 21  1  0  0  0  0
 18 22  2  0  0  0  0
 21 23  2  0  0  0  0
 21 24  1  0  0  0  0
 22 25  1  0  0  0  0
  9 10  1  0  0  0  0
 11 13  2  0  0  0  0
 22 23  1  0  0  0  0
M  END
>  <MolRegNo>
468002

>  <m>
=

>  <Value>
2700

>  <Unit>
nM

>  <Type>
Ki

>  <pValue>
5.57

>  <Ligand Efficiency>
0.3

>  <Binding Efficiency>
16.4

>  <Surface Efficiency>
19.55

>  <Assay Index>
336391

>  <Assay Category>


>  <Assay Organism>
Homo sapiens

>  <Target ID>
56

>  <Target Name>
Androgen Receptor

>  <Target Organism>
Homo sapiens

>  <Target Description>
Target is a single protein chain

>  <Sequence Accession>
P10275

>  <Reference>
Bioorg Med Chem 16 (14), 6799-6812 (2008)

>  <Pubmed ID>
18571420

>  <DOI>
10.1016/j.bmc.2008.05.063

$$$$
468001
Actelion Java MolfileCreator 1.0

 24 26  0  0  0  0  0  0  0  0999 V2000
    0.0000   -0.0000   -0.0000 O   0  0  0  0  0  0  0  0  0  0  0  0
   -0.8037    1.2764   -0.0000 C   0  0  0  0  0  0  0  0  0  0  0  0
   -0.1064    2.6119   -0.0000 N   0  0  0  0  0  0  0  0  0  0  0  0
   -2.3164    1.2409   -0.0000 C   0  0  0  0  0  0  0  0  0  0  0  0
    1.3118    2.9782   -0.0000 C   0  0  0  0  0  0  0  0  0  0  0  0
   -0.9100    3.8883   -0.0000 C   0  0  0  0  0  0  0  0  0  0  0  0
   -2.9310   -0.1182   -0.0000 N   0  0  0  0  0  0  0  0  0  0  0  0
   -3.4510    2.2455   -0.0000 C   0  0  0  0  0  0  0  0  0  0  0  0
    1.4182    4.4910   -0.0000 C   0  0  0  0  0  0  0  0  0  0  0  0
    0.0236    5.0347   -0.0000 C   0  0  0  0  0  0  0  0  0  0  0  0
   -4.4201    0.0355   -0.0000 C   0  0  0  0  0  0  0  0  0  0  0  0
   -2.1746   -1.3946   -0.0000 C   0  0  0  0  0  0  0  0  0  0  0  0
   -4.7510    1.5009   -0.0000 C   0  0  0  0  0  0  0  0  0  0  0  0
   -6.0747    2.2573   -0.0000 N   0  0  0  0  0  0  0  0  0  0  0  0
   -7.3865    1.5009   -0.0000 C   0  0  0  0  0  0  0  0  0  0  0  0
   -6.0983    3.7583   -0.0000 C   0  0  0  0  0  0  0  0  0  0  0  0
   -7.3983    0.0118   -0.0000 C   0  0  0  0  0  0  0  0  0  0  0  0
   -8.6866    2.2573   -0.0000 C   0  0  0  0  0  0  0  0  0  0  0  0
   -4.8219    4.5265   -0.0000 C   0  0  0  0  0  0  0  0  0  0  0  0
   -8.6984   -0.7209   -0.0000 C   0  0  0  0  0  0  0  0  0  0  0  0
   -9.9984    1.5246   -0.0000 C   0  0  0  0  0  0  0  0  0  0  0  0
  -10.0102    0.0355   -0.0000 C   0  0  0  0  0  0  0  0  0  0  0  0
   -8.7102   -2.1982   -0.0000 C   0  0  0  0  0  0  0  0  0  0  0  0
  -11.3102    2.2928   -0.0000 C   0  0  0  0  0  0  0  0  0  0  0  0
  1  2  2  0  0  0  0
  2  3  1  0  0  0  0
  2  4  1  0  0  0  0
  3  5  1  0  0  0  0
  3  6  1  0  0  0  0
  4  7  1  0  0  0  0
  4  8  2  0  0  0  0
  5  9  1  0  0  0  0
  6 10  1  0  0  0  0
  7 11  1  0  0  0  0
  7 12  1  0  0  0  0
  8 13  1  0  0  0  0
 13 14  1  0  0  0  0
 14 15  1  0  0  0  0
 14 16  1  0  0  0  0
 15 17  2  0  0  0  0
 15 18  1  0  0  0  0
 16 19  1  0  0  0  0
 17 20  1  0  0  0  0
 18 21  2  0  0  0  0
 20 22  2  0  0  0  0
 20 23  1  0  0  0  0
 21 24  1  0  0  0  0
  9 10  1  0  0  0  0
 11 13  2  0  0  0  0
 21 22  1  0  0  0  0
M  END
>  <MolRegNo>
468001

>  <m>
=

>  <Value>
2700

>  <Unit>
nM

>  <Type>
Ki

>  <pValue>
5.57

>  <Ligand Efficiency>
0.32

>  <Binding Efficiency>
17.11

>  <Surface Efficiency>
19.55

>  <Assay Index>
336391

>  <Assay Category>


>  <Assay Organism>
Homo sapiens

>  <Target ID>
56

>  <Target Name>
Androgen Receptor

>  <Target Organism>
Homo sapiens

>  <Target Description>
Target is a single protein chain

>  <Sequence Accession>
P10275

>  <Reference>
Bioorg Med Chem 16 (14), 6799-6812 (2008)

>  <Pubmed ID>
18571420

>  <DOI>
10.1016/j.bmc.2008.05.063

$$$$
468000
Actelion Java MolfileCreator 1.0

 23 25  0  0  0  0  0  0  0  0999 V2000
    0.0000   -0.0000   -0.0000 O   0  0  0  0  0  0  0  0  0  0  0  0
   -0.8034    1.2760   -0.0000 C   0  0  0  0  0  0  0  0  0  0  0  0
   -0.1063    2.6112   -0.0000 N   0  0  0  0  0  0  0  0  0  0  0  0
   -2.3158    1.2406   -0.0000 C   0  0  0  0  0  0  0  0  0  0  0  0
    1.3115    2.9774   -0.0000 C   0  0  0  0  0  0  0  0  0  0  0  0
   -0.9098    3.8872   -0.0000 C   0  0  0  0  0  0  0  0  0  0  0  0
   -2.9302   -0.1182   -0.0000 N   0  0  0  0  0  0  0  0  0  0  0  0
   -3.4500    2.2449   -0.0000 C   0  0  0  0  0  0  0  0  0  0  0  0
    1.4178    4.4898   -0.0000 C   0  0  0  0  0  0  0  0  0  0  0  0
    0.0236    5.0333   -0.0000 C   0  0  0  0  0  0  0  0  0  0  0  0
   -4.4189    0.0354   -0.0000 C   0  0  0  0  0  0  0  0  0  0  0  0
   -2.1740   -1.3942   -0.0000 C   0  0  0  0  0  0  0  0  0  0  0  0
   -4.7497    1.5005   -0.0000 C   0  0  0  0  0  0  0  0  0  0  0  0
   -6.0730    2.2567   -0.0000 N   0  0  0  0  0  0  0  0  0  0  0  0
   -7.3845    1.5005   -0.0000 C   0  0  0  0  0  0  0  0  0  0  0  0
   -6.0966    3.7572   -0.0000 C   0  0  0  0  0  0  0  0  0  0  0  0
   -7.3963    0.0118   -0.0000 C   0  0  0  0  0  0  0  0  0  0  0  0
   -8.6842    2.2567   -0.0000 C   0  0  0  0  0  0  0  0  0  0  0  0
   -8.6960   -0.7207   -0.0000 C   0  0  0  0  0  0  0  0  0  0  0  0
   -9.9957    1.5242   -0.0000 C   0  0  0  0  0  0  0  0  0  0  0  0
  -10.0075    0.0354   -0.0000 C   0  0  0  0  0  0  0  0  0  0  0  0
   -8.7078   -2.1976   -0.0000 C   0  0  0  0  0  0  0  0  0  0  0  0
  -11.3071    2.2921   -0.0000 C   0  0  0  0  0  0  0  0  0  0  0  0
  1  2  2  0  0  0  0
  2  3  1  0  0  0  0
  2  4  1  0  0  0  0
  3  5  1  0  0  0  0
  3  6  1  0  0  0  0
  4  7  1  0  0  0  0
  4  8  2  0  0  0  0
  5  9  1  0  0  0  0
  6 10  1  0  0  0  0
  7 11  1  0  0  0  0
  7 12  1  0  0  0  0
  8 13  1  0  0  0  0
 13 14  1  0  0  0  0
 14 15  1  0  0  0  0
 14 16  1  0  0  0  0
 15 17  2  0  0  0  0
 15 18  1  0  0  0  0
 17 19  1  0  0  0  0
 18 20  2  0  0  0  0
 19 21  2  0  0  0  0
 19 22  1  0  0  0  0
 20 23  1  0  0  0  0
  9 10  1  0  0  0  0
 11 13  2  0  0  0  0
 20 21  1  0  0  0  0
M  END
>  <MolRegNo>
468000

>  <m>
=

>  <Value>
6100

>  <Unit>
nM

>  <Type>
Ki

>  <pValue>
5.21

>  <Ligand Efficiency>
0.31

>  <Binding Efficiency>
16.74

>  <Surface Efficiency>
18.31

>  <Assay Index>
336391

>  <Assay Category>


>  <Assay Organism>
Homo sapiens

>  <Target ID>
56

>  <Target Name>
Androgen Receptor

>  <Target Organism>
Homo sapiens

>  <Target Description>
Target is a single protein chain

>  <Sequence Accession>
P10275

>  <Reference>
Bioorg Med Chem 16 (14), 6799-6812 (2008)

>  <Pubmed ID>
18571420

>  <DOI>
10.1016/j.bmc.2008.05.063

$$$$
467999
Actelion Java MolfileCreator 1.0

 23 25  0  0  0  0  0  0  0  0999 V2000
    0.0000   -0.0000   -0.0000 O   0  0  0  0  0  0  0  0  0  0  0  0
   -0.0118   -1.4806   -0.0000 N   0  0  0  0  0  0  0  0  0  0  0  0
    1.2793   -2.2150   -0.0000 O   0  0  0  0  0  0  0  0  0  0  0  0
   -1.3148   -2.2269   -0.0000 C   0  0  0  0  0  0  0  0  0  0  0  0
   -2.6177   -1.4688   -0.0000 C   0  0  0  0  0  0  0  0  0  0  0  0
   -1.3266   -3.7193   -0.0000 C   0  0  0  0  0  0  0  0  0  0  0  0
   -3.9207   -2.2032   -0.0000 C   0  0  0  0  0  0  0  0  0  0  0  0
   -2.6414   -4.4537   -0.0000 C   0  0  0  0  0  0  0  0  0  0  0  0
   -3.9325   -3.6956   -0.0000 C   0  0  0  0  0  0  0  0  0  0  0  0
   -5.2473   -4.4537   -0.0000 N   0  0  0  0  0  0  0  0  0  0  0  0
   -6.5739   -3.6956   -0.0000 C   0  0  0  0  0  0  0  0  0  0  0  0
   -6.9175   -2.2269   -0.0000 C   0  0  0  0  0  0  0  0  0  0  0  0
   -7.8769   -4.4419   -0.0000 C   0  0  0  0  0  0  0  0  0  0  0  0
   -8.4099   -2.0729   -0.0000 N   0  0  0  0  0  0  0  0  0  0  0  0
   -9.0140   -3.4350   -0.0000 C   0  0  0  0  0  0  0  0  0  0  0  0
   -9.1917   -0.7699   -0.0000 C   0  0  0  0  0  0  0  0  0  0  0  0
  -10.5302   -3.4706   -0.0000 C   0  0  0  0  0  0  0  0  0  0  0  0
  -11.3356   -2.1913   -0.0000 O   0  0  0  0  0  0  0  0  0  0  0  0
  -11.2409   -4.7854   -0.0000 N   0  0  0  0  0  0  0  0  0  0  0  0
  -12.6859   -5.1289   -0.0000 C   0  0  0  0  0  0  0  0  0  0  0  0
  -10.4591   -6.0409   -0.0000 C   0  0  0  0  0  0  0  0  0  0  0  0
  -12.8162   -6.6095   -0.0000 C   0  0  0  0  0  0  0  0  0  0  0  0
  -11.4185   -7.1662   -0.0000 C   0  0  0  0  0  0  0  0  0  0  0  0
  1  2  2  0  0  0  0
  2  3  1  0  0  0  0
  2  4  1  0  0  0  0
  4  5  2  0  0  0  0
  4  6  1  0  0  0  0
  5  7  1  0  0  0  0
  6  8  2  0  0  0  0
  7  9  2  0  0  0  0
  9 10  1  0  0  0  0
 10 11  1  0  0  0  0
 11 12  2  0  0  0  0
 11 13  1  0  0  0  0
 12 14  1  0  0  0  0
 13 15  2  0  0  0  0
 14 16  1  0  0  0  0
 15 17  1  0  0  0  0
 17 18  2  0  0  0  0
 17 19  1  0  0  0  0
 19 20  1  0  0  0  0
 19 21  1  0  0  0  0
 20 22  1  0  0  0  0
 21 23  1  0  0  0  0
  8  9  1  0  0  0  0
 14 15  1  0  0  0  0
 22 23  1  0  0  0  0
M  CHG  2   2   1   3  -1
M  END
>  <MolRegNo>
467999

>  <m>
=

>  <Value>
4900

>  <Unit>
nM

>  <Type>
Ki

>  <pValue>
5.31

>  <Ligand Efficiency>
0.32

>  <Binding Efficiency>
16.89

>  <Surface Efficiency>
6.6

>  <Assay Index>
336391

>  <Assay Category>


>  <Assay Organism>
Homo sapiens

>  <Target ID>
56

>  <Target Name>
Androgen Receptor

>  <Target Organism>
Homo sapiens

>  <Target Description>
Target is a single protein chain

>  <Sequence Accession>
P10275

>  <Reference>
Bioorg Med Chem 16 (14), 6799-6812 (2008)

>  <Pubmed ID>
18571420

>  <DOI>
10.1016/j.bmc.2008.05.063

$$$$
467998
Actelion Java MolfileCreator 1.0

 22 24  0  0  0  0  0  0  0  0999 V2000
    0.0000   -0.0000   -0.0000 O   0  0  0  0  0  0  0  0  0  0  0  0
    0.7844   -1.2599   -0.0000 C   0  0  0  0  0  0  0  0  0  0  0  0
    0.0594   -2.5791   -0.0000 N   0  0  0  0  0  0  0  0  0  0  0  0
    2.2820   -1.2004   -0.0000 C   0  0  0  0  0  0  0  0  0  0  0  0
   -1.3906   -2.9238   -0.0000 C   0  0  0  0  0  0  0  0  0  0  0  0
    0.8439   -3.8390   -0.0000 C   0  0  0  0  0  0  0  0  0  0  0  0
    2.8763    0.1902   -0.0000 N   0  0  0  0  0  0  0  0  0  0  0  0
    3.3992   -2.1869   -0.0000 C   0  0  0  0  0  0  0  0  0  0  0  0
   -1.5213   -4.4214   -0.0000 C   0  0  0  0  0  0  0  0  0  0  0  0
   -0.1189   -4.9681   -0.0000 C   0  0  0  0  0  0  0  0  0  0  0  0
    4.3501    0.0594   -0.0000 C   0  0  0  0  0  0  0  0  0  0  0  0
    2.0918    1.4976   -0.0000 C   0  0  0  0  0  0  0  0  0  0  0  0
    4.6829   -1.4144   -0.0000 C   0  0  0  0  0  0  0  0  0  0  0  0
    5.9903   -2.1513   -0.0000 N   0  0  0  0  0  0  0  0  0  0  0  0
    7.2858   -1.3668   -0.0000 C   0  0  0  0  0  0  0  0  0  0  0  0
    7.2739    0.1545   -0.0000 C   0  0  0  0  0  0  0  0  0  0  0  0
    8.5694   -2.1037   -0.0000 C   0  0  0  0  0  0  0  0  0  0  0  0
    8.5575    0.9152   -0.0000 C   0  0  0  0  0  0  0  0  0  0  0  0
    9.8649   -1.3431   -0.0000 C   0  0  0  0  0  0  0  0  0  0  0  0
    9.8530    0.1783   -0.0000 C   0  0  0  0  0  0  0  0  0  0  0  0
    8.5456    2.4246   -0.0000 C   0  0  0  0  0  0  0  0  0  0  0  0
   11.1604   -2.0918   -0.0000 C   0  0  0  0  0  0  0  0  0  0  0  0
  1  2  2  0  0  0  0
  2  3  1  0  0  0  0
  2  4  1  0  0  0  0
  3  5  1  0  0  0  0
  3  6  1  0  0  0  0
  4  7  1  0  0  0  0
  4  8  2  0  0  0  0
  5  9  1  0  0  0  0
  6 10  1  0  0  0  0
  7 11  1  0  0  0  0
  7 12  1  0  0  0  0
  8 13  1  0  0  0  0
 13 14  1  0  0  0  0
 14 15  1  0  0  0  0
 15 16  2  0  0  0  0
 15 17  1  0  0  0  0
 16 18  1  0  0  0  0
 17 19  2  0  0  0  0
 18 20  2  0  0  0  0
 18 21  1  0  0  0  0
 19 22  1  0  0  0  0
  9 10  1  0  0  0  0
 11 13  2  0  0  0  0
 19 20  1  0  0  0  0
M  END
>  <MolRegNo>
467998

>  <m>
=

>  <Value>
3100

>  <Unit>
nM

>  <Type>
Ki

>  <pValue>
5.51

>  <Ligand Efficiency>
0.34

>  <Binding Efficiency>
18.52

>  <Surface Efficiency>
14.78

>  <Assay Index>
336391

>  <Assay Category>


>  <Assay Organism>
Homo sapiens

>  <Target ID>
56

>  <Target Name>
Androgen Receptor

>  <Target Organism>
Homo sapiens

>  <Target Description>
Target is a single protein chain

>  <Sequence Accession>
P10275

>  <Reference>
Bioorg Med Chem 16 (14), 6799-6812 (2008)

>  <Pubmed ID>
18571420

>  <DOI>
10.1016/j.bmc.2008.05.063

$$$$
468551
Actelion Java MolfileCreator 1.0

 34 38  0  0  0  0  0  0  0  0999 V2000
    0.0000   -0.0000   -0.0000 O   0  0  0  0  0  0  0  0  0  0  0  0
   -0.0119    1.5112   -0.0000 N   0  0  0  0  0  0  0  0  0  0  0  0
   -1.3208    2.2727   -0.0000 O   0  0  0  0  0  0  0  0  0  0  0  0
    1.2732    2.2846   -0.0000 C   0  0  0  0  0  0  0  0  0  0  0  0
    2.5583    1.5469   -0.0000 C   0  0  0  0  0  0  0  0  0  0  0  0
    1.2613    3.8076   -0.0000 C   0  0  0  0  0  0  0  0  0  0  0  0
    3.8433    2.3084   -0.0000 C   0  0  0  0  0  0  0  0  0  0  0  0
    2.5583    4.5692   -0.0000 C   0  0  0  0  0  0  0  0  0  0  0  0
    3.8314    3.8195   -0.0000 C   0  0  0  0  0  0  0  0  0  0  0  0
    5.1284    4.6049   -0.0000 N   0  0  0  0  0  0  0  0  0  0  0  0
    6.4373    3.8671   -0.0000 C   0  0  0  0  0  0  0  0  0  0  0  0
    5.1046    6.1160   -0.0000 C   0  0  0  0  0  0  0  0  0  0  0  0
    6.7586    2.4155   -0.0000 C   0  0  0  0  0  0  0  0  0  0  0  0
    7.7224    4.6406   -0.0000 C   0  0  0  0  0  0  0  0  0  0  0  0
    6.3897    6.8895   -0.0000 C   0  0  0  0  0  0  0  0  0  0  0  0
    8.2340    2.2846   -0.0000 N   0  0  0  0  0  0  0  0  0  0  0  0
    8.8409    3.6530   -0.0000 C   0  0  0  0  0  0  0  0  0  0  0  0
    7.6867    6.1517   -0.0000 C   0  0  0  0  0  0  0  0  0  0  0  0
    6.3540    8.3887   -0.0000 C   0  0  0  0  0  0  0  0  0  0  0  0
    8.9956    0.9995   -0.0000 C   0  0  0  0  0  0  0  0  0  0  0  0
   10.1260    4.4502   -0.0000 C   0  0  0  0  0  0  0  0  0  0  0  0
    8.9718    6.9252   -0.0000 C   0  0  0  0  0  0  0  0  0  0  0  0
    7.6272    9.1622   -0.0000 C   0  0  0  0  0  0  0  0  0  0  0  0
   10.0903    5.9732   -0.0000 O   0  0  0  0  0  0  0  0  0  0  0  0
   11.4348    3.7363   -0.0000 N   0  0  0  0  0  0  0  0  0  0  0  0
    8.9480    8.4363   -0.0000 C   0  0  0  0  0  0  0  0  0  0  0  0
   11.6252    2.2608   -0.0000 C   0  0  0  0  0  0  0  0  0  0  0  0
   12.8032    4.3907   -0.0000 C   0  0  0  0  0  0  0  0  0  0  0  0
   13.0888    1.9752   -0.0000 C   0  0  0  0  0  0  0  0  0  0  0  0
   10.6257    1.1423   -0.0000 C   0  0  0  0  0  0  0  0  0  0  0  0
   13.8265    3.2960   -0.0000 C   0  0  0  0  0  0  0  0  0  0  0  0
   13.5647    0.5711   -0.0000 C   0  0  0  0  0  0  0  0  0  0  0  0
   11.1017   -0.2737   -0.0000 C   0  0  0  0  0  0  0  0  0  0  0  0
   12.5771   -0.5473   -0.0000 C   0  0  0  0  0  0  0  0  0  0  0  0
  1  2  2  0  0  0  0
  2  3  1  0  0  0  0
  2  4  1  0  0  0  0
  4  5  2  0  0  0  0
  4  6  1  0  0  0  0
  5  7  1  0  0  0  0
  6  8  2  0  0  0  0
  7  9  2  0  0  0  0
  9 10  1  0  0  0  0
 10 11  1  0  0  0  0
 10 12  1  0  0  0  0
 11 13  2  0  0  0  0
 11 14  1  0  0  0  0
 12 15  1  0  0  0  0
 13 16  1  0  0  0  0
 14 17  2  0  0  0  0
 15 18  2  0  0  0  0
 15 19  1  0  0  0  0
 16 20  1  0  0  0  0
 17 21  1  0  0  0  0
 18 22  1  0  0  0  0
 19 23  2  0  0  0  0
 21 24  2  0  0  0  0
 21 25  1  0  0  0  0
 22 26  2  0  0  0  0
 25 27  1  0  0  0  0
 25 28  1  0  0  0  0
 27 29  2  0  0  0  0
 27 30  1  0  0  0  0
 28 31  1  0  0  0  0
 29 32  1  0  0  0  0
 30 33  2  0  0  0  0
 32 34  2  0  0  0  0
  8  9  1  0  0  0  0
 16 17  1  0  0  0  0
 23 26  1  0  0  0  0
 29 31  1  0  0  0  0
 33 34  1  0  0  0  0
M  CHG  2   2   1   3  -1
M  END
>  <MolRegNo>
468551

>  <m>
=

>  <Value>
9

>  <Unit>
nM

>  <Type>
Ki

>  <pValue>
8.05

>  <Ligand Efficiency>
0.32

>  <Binding Efficiency>
17.78

>  <Surface Efficiency>
11.23

>  <Assay Index>
336397

>  <Assay Category>


>  <Assay Organism>
Homo sapiens

>  <Target ID>
56

>  <Target Name>
Androgen Receptor

>  <Target Organism>
Homo sapiens

>  <Target Description>
Target is a single protein chain

>  <Sequence Accession>
P10275

>  <Reference>
Bioorg Med Chem 16 (14), 6799-6812 (2008)

>  <Pubmed ID>
18571420

>  <DOI>
10.1016/j.bmc.2008.05.063

$$$$
468294
Actelion Java MolfileCreator 1.0

 34 37  0  0  0  0  0  0  0  0999 V2000
    0.0000   -0.0000   -0.0000 F   0  0  0  0  0  0  0  0  0  0  0  0
    0.0000    1.5102   -0.0000 C   0  0  0  0  0  0  0  0  0  0  0  0
    1.4864    1.5221   -0.0000 F   0  0  0  0  0  0  0  0  0  0  0  0
   -1.5102    1.5221   -0.0000 F   0  0  0  0  0  0  0  0  0  0  0  0
   -0.0119    3.0204   -0.0000 C   0  0  0  0  0  0  0  0  0  0  0  0
   -1.3199    3.7814   -0.0000 C   0  0  0  0  0  0  0  0  0  0  0  0
    1.2724    3.7814   -0.0000 C   0  0  0  0  0  0  0  0  0  0  0  0
   -2.6280    3.0442   -0.0000 N   0  0  0  0  0  0  0  0  0  0  0  0
   -1.3318    5.3035   -0.0000 C   0  0  0  0  0  0  0  0  0  0  0  0
    1.2605    5.2916   -0.0000 C   0  0  0  0  0  0  0  0  0  0  0  0
   -2.6399    1.5578   -0.0000 O   0  0  0  0  0  0  0  0  0  0  0  0
   -3.9360    3.8052   -0.0000 O   0  0  0  0  0  0  0  0  0  0  0  0
   -0.0357    6.0646   -0.0000 C   0  0  0  0  0  0  0  0  0  0  0  0
    2.5566    6.0765   -0.0000 N   0  0  0  0  0  0  0  0  0  0  0  0
    3.8647    5.3392   -0.0000 C   0  0  0  0  0  0  0  0  0  0  0  0
    2.5328    7.5867   -0.0000 C   0  0  0  0  0  0  0  0  0  0  0  0
    4.1857    3.8885   -0.0000 C   0  0  0  0  0  0  0  0  0  0  0  0
    5.1489    6.1121   -0.0000 C   0  0  0  0  0  0  0  0  0  0  0  0
    3.8171    8.3596   -0.0000 C   0  0  0  0  0  0  0  0  0  0  0  0
    5.6603    3.7577   -0.0000 N   0  0  0  0  0  0  0  0  0  0  0  0
    6.2667    5.1252   -0.0000 C   0  0  0  0  0  0  0  0  0  0  0  0
    5.1014    7.6342   -0.0000 C   0  0  0  0  0  0  0  0  0  0  0  0
    3.7814    9.8579   -0.0000 C   0  0  0  0  0  0  0  0  0  0  0  0
    6.4213    2.4734   -0.0000 C   0  0  0  0  0  0  0  0  0  0  0  0
    7.7650    5.1846   -0.0000 C   0  0  0  0  0  0  0  0  0  0  0  0
    6.3856    8.4072   -0.0000 C   0  0  0  0  0  0  0  0  0  0  0  0
    5.0538   10.6308   -0.0000 C   0  0  0  0  0  0  0  0  0  0  0  0
    8.5498    3.9241   -0.0000 O   0  0  0  0  0  0  0  0  0  0  0  0
    8.4547    6.5283   -0.0000 N   0  0  0  0  0  0  0  0  0  0  0  0
    6.3618    9.9173   -0.0000 C   0  0  0  0  0  0  0  0  0  0  0  0
    9.8817    6.8970   -0.0000 C   0  0  0  0  0  0  0  0  0  0  0  0
    7.6461    7.8126   -0.0000 C   0  0  0  0  0  0  0  0  0  0  0  0
    9.9887    8.4072   -0.0000 C   0  0  0  0  0  0  0  0  0  0  0  0
    8.5855    8.9660   -0.0000 C   0  0  0  0  0  0  0  0  0  0  0  0
  1  2  1  0  0  0  0
  2  3  1  0  0  0  0
  2  4  1  0  0  0  0
  2  5  1  0  0  0  0
  5  6  2  0  0  0  0
  5  7  1  0  0  0  0
  6  8  1  0  0  0  0
  6  9  1  0  0  0  0
  7 10  2  0  0  0  0
  8 11  2  0  0  0  0
  8 12  1  0  0  0  0
  9 13  2  0  0  0  0
 10 14  1  0  0  0  0
 14 15  1  0  0  0  0
 14 16  1  0  0  0  0
 15 17  2  0  0  0  0
 15 18  1  0  0  0  0
 16 19  1  0  0  0  0
 17 20  1  0  0  0  0
 18 21  2  0  0  0  0
 19 22  2  0  0  0  0
 19 23  1  0  0  0  0
 20 24  1  0  0  0  0
 21 25  1  0  0  0  0
 22 26  1  0  0  0  0
 23 27  2  0  0  0  0
 25 28  2  0  0  0  0
 25 29  1  0  0  0  0
 26 30  2  0  0  0  0
 29 31  1  0  0  0  0
 29 32  1  0  0  0  0
 31 33  1  0  0  0  0
 32 34  1  0  0  0  0
 10 13  1  0  0  0  0
 20 21  1  0  0  0  0
 27 30  1  0  0  0  0
 33 34  1  0  0  0  0
M  CHG  2   8   1  12  -1
M  END
>  <MolRegNo>
468294

>  <m>
=

>  <Value>
49

>  <Unit>
nM

>  <Type>
Ki

>  <pValue>
7.31

>  <Ligand Efficiency>
0.29

>  <Binding Efficiency>
15.47

>  <Surface Efficiency>
10.21

>  <Assay Index>
336397

>  <Assay Category>


>  <Assay Organism>
Homo sapiens

>  <Target ID>
56

>  <Target Name>
Androgen Receptor

>  <Target Organism>
Homo sapiens

>  <Target Description>
Target is a single protein chain

>  <Sequence Accession>
P10275

>  <Reference>
Bioorg Med Chem 16 (14), 6799-6812 (2008)

>  <Pubmed ID>
18571420

>  <DOI>
10.1016/j.bmc.2008.05.063

$$$$
459345
Actelion Java MolfileCreator 1.0

 25 29  0  0  0  0  0  0  0  0999 V2000
    0.0000   -0.0000   -0.0000 S   0  0  0  0  0  0  0  0  0  0  0  0
    0.6082   -1.3516   -0.0000 C   0  0  0  0  0  0  0  0  0  0  0  0
    1.0982    1.0475   -0.0000 C   0  0  0  0  0  0  0  0  0  0  0  0
    2.0949   -1.1657   -0.0000 N   0  0  0  0  0  0  0  0  0  0  0  0
   -0.1521   -2.6525   -0.0000 N   0  0  0  0  0  0  0  0  0  0  0  0
    2.3990    0.3210   -0.0000 C   0  0  0  0  0  0  0  0  0  0  0  0
   -1.6726   -2.6525   -0.0000 C   0  0  0  0  0  0  0  0  0  0  0  0
   -2.4666   -1.3347   -0.0000 O   0  0  0  0  0  0  0  0  0  0  0  0
   -2.4328   -3.9533   -0.0000 C   0  0  0  0  0  0  0  0  0  0  0  0
   -2.4497   -5.3218   -0.0000 C   0  0  0  0  0  0  0  0  0  0  0  0
   -1.9598   -4.6798   -0.0000 C   0  0  0  0  0  0  0  0  0  0  0  0
   -3.7675   -3.1762   -0.0000 C   0  0  0  0  0  0  0  0  0  0  0  0
   -3.8182   -5.9638   -0.0000 C   0  0  0  0  0  0  0  0  0  0  0  0
   -0.9630   -6.1834   -0.0000 C   0  0  0  0  0  0  0  0  0  0  0  0
   -1.9767   -6.8085   -0.0000 C   0  0  0  0  0  0  0  0  0  0  0  0
   -3.8013   -7.3154   -0.0000 C   0  0  0  0  0  0  0  0  0  0  0  0
   -5.1191   -5.0515   -0.0000 C   0  0  0  0  0  0  0  0  0  0  0  0
   -0.9799   -7.6195   -0.0000 C   0  0  0  0  0  0  0  0  0  0  0  0
    0.2703   -5.4401   -0.0000 C   0  0  0  0  0  0  0  0  0  0  0  0
   -5.1360   -8.0587   -0.0000 C   0  0  0  0  0  0  0  0  0  0  0  0
   -6.4369   -5.7949   -0.0000 C   0  0  0  0  0  0  0  0  0  0  0  0
    0.2534   -8.3291   -0.0000 C   0  0  0  0  0  0  0  0  0  0  0  0
    1.5036   -6.1328   -0.0000 C   0  0  0  0  0  0  0  0  0  0  0  0
   -6.4538   -7.2816   -0.0000 C   0  0  0  0  0  0  0  0  0  0  0  0
    1.4867   -7.5857   -0.0000 C   0  0  0  0  0  0  0  0  0  0  0  0
  1  2  1  0  0  0  0
  1  3  1  0  0  0  0
  2  4  2  0  0  0  0
  2  5  1  0  0  0  0
  3  6  2  0  0  0  0
  5  7  1  0  0  0  0
  7  8  2  0  0  0  0
  7  9  1  0  0  0  0
  9 10  1  0  0  0  0
  9 11  1  0  0  0  0
  9 12  1  6  0  0  0
 10 13  1  0  0  0  0
 10 14  1  0  0  0  0
 11 15  1  0  0  0  0
 13 16  2  0  0  0  0
 13 17  1  0  0  0  0
 14 18  2  0  0  0  0
 14 19  1  0  0  0  0
 16 20  1  0  0  0  0
 17 21  2  0  0  0  0
 18 22  1  0  0  0  0
 19 23  2  0  0  0  0
 20 24  2  0  0  0  0
 22 25  2  0  0  0  0
  4  6  1  0  0  0  0
 15 16  1  0  0  0  0
 15 18  1  0  0  0  0
 21 24  1  0  0  0  0
 23 25  1  0  0  0  0
M  END
>  <MolRegNo>
459345

>  <m>
=

>  <Value>
7400

>  <Unit>
nM

>  <Type>
Ki

>  <pValue>
5.13

>  <Ligand Efficiency>
0.28

>  <Binding Efficiency>
14.81

>  <Surface Efficiency>
12.22

>  <Assay Index>
348826

>  <Assay Category>


>  <Assay Organism>


>  <Target ID>
56

>  <Target Name>
Androgen Receptor

>  <Target Organism>
Homo sapiens

>  <Target Description>
Target is a single protein chain

>  <Sequence Accession>
P10275

>  <Reference>
Bioorg Med Chem Lett 19 (8), 2139-2143 (2009)

>  <Pubmed ID>
19321341

>  <DOI>
10.1016/j.bmcl.2009.03.006

$$$$
459286
Actelion Java MolfileCreator 1.0

 26 30  0  0  0  0  0  0  0  0999 V2000
    0.0000   -0.0000   -0.0000 S   0  0  0  0  0  0  0  0  0  0  0  0
    0.6084   -1.3520   -0.0000 C   0  0  0  0  0  0  0  0  0  0  0  0
    1.0985    1.0478   -0.0000 C   0  0  0  0  0  0  0  0  0  0  0  0
    2.0955   -1.1661   -0.0000 N   0  0  0  0  0  0  0  0  0  0  0  0
   -0.1521   -2.6532   -0.0000 N   0  0  0  0  0  0  0  0  0  0  0  0
    2.3997    0.3211   -0.0000 C   0  0  0  0  0  0  0  0  0  0  0  0
   -1.6730   -2.6532   -0.0000 C   0  0  0  0  0  0  0  0  0  0  0  0
   -2.4673   -1.3351   -0.0000 O   0  0  0  0  0  0  0  0  0  0  0  0
   -2.4335   -3.9545   -0.0000 C   0  0  0  0  0  0  0  0  0  0  0  0
   -2.4504   -5.3233   -0.0000 C   0  0  0  0  0  0  0  0  0  0  0  0
   -1.9603   -4.6812   -0.0000 C   0  0  0  0  0  0  0  0  0  0  0  0
   -3.7686   -3.1771   -0.0000 C   0  0  0  0  0  0  0  0  0  0  0  0
   -3.8193   -5.9655   -0.0000 C   0  0  0  0  0  0  0  0  0  0  0  0
   -0.9633   -6.1852   -0.0000 C   0  0  0  0  0  0  0  0  0  0  0  0
   -1.9772   -6.8105   -0.0000 C   0  0  0  0  0  0  0  0  0  0  0  0
   -3.8024   -7.3175   -0.0000 C   0  0  0  0  0  0  0  0  0  0  0  0
   -5.1205   -5.0529   -0.0000 C   0  0  0  0  0  0  0  0  0  0  0  0
   -0.9802   -7.6217   -0.0000 C   0  0  0  0  0  0  0  0  0  0  0  0
    0.2704   -5.4416   -0.0000 C   0  0  0  0  0  0  0  0  0  0  0  0
   -2.0110   -8.2976   -0.0000 C   0  0  0  0  0  0  0  0  0  0  0  0
   -5.1374   -8.0610   -0.0000 C   0  0  0  0  0  0  0  0  0  0  0  0
   -6.4387   -5.7965   -0.0000 C   0  0  0  0  0  0  0  0  0  0  0  0
    0.2535   -8.3314   -0.0000 C   0  0  0  0  0  0  0  0  0  0  0  0
    1.5041   -6.1345   -0.0000 C   0  0  0  0  0  0  0  0  0  0  0  0
   -6.4556   -7.2837   -0.0000 C   0  0  0  0  0  0  0  0  0  0  0  0
    1.4872   -7.5879   -0.0000 C   0  0  0  0  0  0  0  0  0  0  0  0
  1  2  1  0  0  0  0
  1  3  1  0  0  0  0
  2  4  2  0  0  0  0
  2  5  1  0  0  0  0
  3  6  2  0  0  0  0
  5  7  1  0  0  0  0
  7  8  2  0  0  0  0
  7  9  1  0  0  0  0
  9 10  1  0  0  0  0
  9 11  1  0  0  0  0
  9 12  1  0  0  0  0
 10 13  1  0  0  0  0
 10 14  1  0  0  0  0
 11 15  1  0  0  0  0
 13 16  2  0  0  0  0
 13 17  1  0  0  0  0
 14 18  2  0  0  0  0
 14 19  1  0  0  0  0
 15 20  1  0  0  0  0
 16 21  1  0  0  0  0
 17 22  2  0  0  0  0
 18 23  1  0  0  0  0
 19 24  2  0  0  0  0
 21 25  2  0  0  0  0
 23 26  2  0  0  0  0
  4  6  1  0  0  0  0
 15 16  1  0  0  0  0
 15 18  1  0  0  0  0
 22 25  1  0  0  0  0
 24 26  1  0  0  0  0
M  END
>  <MolRegNo>
459286

>  <m>
=

>  <Value>
2900

>  <Unit>
nM

>  <Type>
Ki

>  <pValue>
5.54

>  <Ligand Efficiency>
0.29

>  <Binding Efficiency>
15.36

>  <Surface Efficiency>
13.19

>  <Assay Index>
348826

>  <Assay Category>


>  <Assay Organism>


>  <Target ID>
56

>  <Target Name>
Androgen Receptor

>  <Target Organism>
Homo sapiens

>  <Target Description>
Target is a single protein chain

>  <Sequence Accession>
P10275

>  <Reference>
Bioorg Med Chem Lett 19 (8), 2139-2143 (2009)

>  <Pubmed ID>
19321341

>  <DOI>
10.1016/j.bmcl.2009.03.006

$$$$
459347
Actelion Java MolfileCreator 1.0

 26 30  0  0  0  0  0  0  0  0999 V2000
    0.0000   -0.0000   -0.0000 S   0  0  0  0  0  0  0  0  0  0  0  0
    0.6084   -1.3520   -0.0000 C   0  0  0  0  0  0  0  0  0  0  0  0
    1.0985    1.0478   -0.0000 C   0  0  0  0  0  0  0  0  0  0  0  0
    2.0955   -1.1661   -0.0000 N   0  0  0  0  0  0  0  0  0  0  0  0
   -0.1521   -2.6532   -0.0000 N   0  0  0  0  0  0  0  0  0  0  0  0
    2.3997    0.3211   -0.0000 N   0  0  0  0  0  0  0  0  0  0  0  0
   -1.6730   -2.6532   -0.0000 C   0  0  0  0  0  0  0  0  0  0  0  0
   -2.4673   -1.3351   -0.0000 O   0  0  0  0  0  0  0  0  0  0  0  0
   -2.4335   -3.9545   -0.0000 C   0  0  0  0  0  0  0  0  0  0  0  0
   -2.4504   -5.3233   -0.0000 C   0  0  0  0  0  0  0  0  0  0  0  0
   -1.9603   -4.6812   -0.0000 C   0  0  0  0  0  0  0  0  0  0  0  0
   -3.7686   -3.1771   -0.0000 C   0  0  0  0  0  0  0  0  0  0  0  0
   -3.8193   -5.9655   -0.0000 C   0  0  0  0  0  0  0  0  0  0  0  0
   -0.9633   -6.1852   -0.0000 C   0  0  0  0  0  0  0  0  0  0  0  0
   -1.9772   -6.8105   -0.0000 C   0  0  0  0  0  0  0  0  0  0  0  0
   -3.8024   -7.3175   -0.0000 C   0  0  0  0  0  0  0  0  0  0  0  0
   -5.1205   -5.0529   -0.0000 C   0  0  0  0  0  0  0  0  0  0  0  0
   -0.9802   -7.6217   -0.0000 C   0  0  0  0  0  0  0  0  0  0  0  0
    0.2704   -5.4416   -0.0000 C   0  0  0  0  0  0  0  0  0  0  0  0
   -2.0110   -8.2976   -0.0000 C   0  0  0  0  0  0  0  0  0  0  0  0
   -5.1374   -8.0610   -0.0000 C   0  0  0  0  0  0  0  0  0  0  0  0
   -6.4387   -5.7965   -0.0000 C   0  0  0  0  0  0  0  0  0  0  0  0
    0.2535   -8.3314   -0.0000 C   0  0  0  0  0  0  0  0  0  0  0  0
    1.5041   -6.1345   -0.0000 C   0  0  0  0  0  0  0  0  0  0  0  0
   -6.4556   -7.2837   -0.0000 C   0  0  0  0  0  0  0  0  0  0  0  0
    1.4872   -7.5879   -0.0000 C   0  0  0  0  0  0  0  0  0  0  0  0
  1  2  1  0  0  0  0
  1  3  1  0  0  0  0
  2  4  2  0  0  0  0
  2  5  1  0  0  0  0
  3  6  2  0  0  0  0
  5  7  1  0  0  0  0
  7  8  2  0  0  0  0
  7  9  1  0  0  0  0
  9 10  1  0  0  0  0
  9 11  1  0  0  0  0
  9 12  1  0  0  0  0
 10 13  1  0  0  0  0
 10 14  1  0  0  0  0
 11 15  1  0  0  0  0
 13 16  2  0  0  0  0
 13 17  1  0  0  0  0
 14 18  2  0  0  0  0
 14 19  1  0  0  0  0
 15 20  1  0  0  0  0
 16 21  1  0  0  0  0
 17 22  2  0  0  0  0
 18 23  1  0  0  0  0
 19 24  2  0  0  0  0
 21 25  2  0  0  0  0
 23 26  2  0  0  0  0
  4  6  1  0  0  0  0
 15 16  1  0  0  0  0
 15 18  1  0  0  0  0
 22 25  1  0  0  0  0
 24 26  1  0  0  0  0
M  END
>  <MolRegNo>
459347

>  <m>
=

>  <Value>
9300

>  <Unit>
nM

>  <Type>
Ki

>  <pValue>
5.03

>  <Ligand Efficiency>
0.26

>  <Binding Efficiency>
13.92

>  <Surface Efficiency>
9.17

>  <Assay Index>
348826

>  <Assay Category>


>  <Assay Organism>


>  <Target ID>
56

>  <Target Name>
Androgen Receptor

>  <Target Organism>
Homo sapiens

>  <Target Description>
Target is a single protein chain

>  <Sequence Accession>
P10275

>  <Reference>
Bioorg Med Chem Lett 19 (8), 2139-2143 (2009)

>  <Pubmed ID>
19321341

>  <DOI>
10.1016/j.bmcl.2009.03.006

$$$$
520894
Actelion Java MolfileCreator 1.0

 20 22  0  0  0  0  0  0  0  0999 V2000
    0.0000   -0.0000   -0.0000 Cl  0  0  0  0  0  0  0  0  0  0  0  0
   -0.7398    1.3152   -0.0000 C   0  0  0  0  0  0  0  0  0  0  0  0
    0.0117    2.6070   -0.0000 C   0  0  0  0  0  0  0  0  0  0  0  0
   -2.2430    1.3505   -0.0000 C   0  0  0  0  0  0  0  0  0  0  0  0
    1.4796    2.6070   -0.0000 C   0  0  0  0  0  0  0  0  0  0  0  0
   -0.7281    3.9222   -0.0000 C   0  0  0  0  0  0  0  0  0  0  0  0
   -2.9710    2.6657   -0.0000 C   0  0  0  0  0  0  0  0  0  0  0  0
   -3.0180    0.0822   -0.0000 C   0  0  0  0  0  0  0  0  0  0  0  0
    2.9593    2.5952   -0.0000 N   0  0  0  0  0  0  0  0  0  0  0  0
   -2.2312    3.9575   -0.0000 C   0  0  0  0  0  0  0  0  0  0  0  0
   -4.4742    2.7009   -0.0000 N   0  0  0  0  0  0  0  0  0  0  0  0
   -5.2140    4.0162   -0.0000 C   0  0  0  0  0  0  0  0  0  0  0  0
   -4.3685    5.2492   -0.0000 O   0  0  0  0  0  0  0  0  0  0  0  0
   -6.6584    4.4624   -0.0000 N   0  0  0  0  0  0  0  0  0  0  0  0
   -5.2844    6.4470   -0.0000 C   0  0  0  0  0  0  0  0  0  0  0  0
   -6.7054    5.9656   -0.0000 C   0  0  0  0  0  0  0  0  0  0  0  0
   -8.0793    3.9809   -0.0000 C   0  0  0  0  0  0  0  0  0  0  0  0
   -8.1498    6.4118   -0.0000 C   0  0  0  0  0  0  0  0  0  0  0  0
   -8.9953    5.1788   -0.0000 C   0  0  0  0  0  0  0  0  0  0  0  0
   -8.6547    7.8327   -0.0000 O   0  0  0  0  0  0  0  0  0  0  0  0
  1  2  1  0  0  0  0
  2  3  2  0  0  0  0
  2  4  1  0  0  0  0
  3  5  1  0  0  0  0
  3  6  1  0  0  0  0
  4  7  2  0  0  0  0
  4  8  1  0  0  0  0
  5  9  3  0  0  0  0
  6 10  2  0  0  0  0
  7 11  1  0  0  0  0
 11 12  2  0  0  0  0
 12 13  1  0  0  0  0
 12 14  1  0  0  0  0
 13 15  1  0  0  0  0
 16 14  1  6  0  0  0
 14 17  1  0  0  0  0
 16 18  1  0  0  0  0
 17 19  1  0  0  0  0
 18 20  1  6  0  0  0
  7 10  1  0  0  0  0
 15 16  1  0  0  0  0
 18 19  1  0  0  0  0
M  END
>  <MolRegNo>
520894

>  <m>
=

>  <Value>
0.8

>  <Unit>
nM

>  <Type>
Ki

>  <pValue>
9.1

>  <Ligand Efficiency>
0.62

>  <Binding Efficiency>
31.18

>  <Surface Efficiency>
13.21

>  <Assay Index>
346568

>  <Assay Category>


>  <Assay Organism>
Homo sapiens

>  <Target ID>
56

>  <Target Name>
Androgen Receptor

>  <Target Organism>
Homo sapiens

>  <Target Description>
Target is a single protein chain

>  <Sequence Accession>
P10275

>  <Reference>
J Med Chem 52 (9), 2794-2798 (2009)

>  <Pubmed ID>
19351168

>  <DOI>
10.1021/jm801583j

$$$$
520895
Actelion Java MolfileCreator 1.0

 20 22  0  0  0  0  0  0  0  0999 V2000
    0.0000   -0.0000   -0.0000 Cl  0  0  0  0  0  0  0  0  0  0  0  0
   -0.7398    1.3152   -0.0000 C   0  0  0  0  0  0  0  0  0  0  0  0
    0.0117    2.6070   -0.0000 C   0  0  0  0  0  0  0  0  0  0  0  0
   -2.2430    1.3505   -0.0000 C   0  0  0  0  0  0  0  0  0  0  0  0
    1.4796    2.6070   -0.0000 C   0  0  0  0  0  0  0  0  0  0  0  0
   -0.7281    3.9222   -0.0000 C   0  0  0  0  0  0  0  0  0  0  0  0
   -2.9710    2.6657   -0.0000 C   0  0  0  0  0  0  0  0  0  0  0  0
   -3.0180    0.0822   -0.0000 C   0  0  0  0  0  0  0  0  0  0  0  0
    2.9593    2.5952   -0.0000 N   0  0  0  0  0  0  0  0  0  0  0  0
   -2.2312    3.9575   -0.0000 C   0  0  0  0  0  0  0  0  0  0  0  0
   -4.4742    2.7009   -0.0000 N   0  0  0  0  0  0  0  0  0  0  0  0
   -5.2140    4.0162   -0.0000 C   0  0  0  0  0  0  0  0  0  0  0  0
   -4.3685    5.2492   -0.0000 O   0  0  0  0  0  0  0  0  0  0  0  0
   -6.6584    4.4624   -0.0000 N   0  0  0  0  0  0  0  0  0  0  0  0
   -5.2844    6.4470   -0.0000 C   0  0  0  0  0  0  0  0  0  0  0  0
   -6.7054    5.9656   -0.0000 C   0  0  0  0  0  0  0  0  0  0  0  0
   -8.0793    3.9809   -0.0000 C   0  0  0  0  0  0  0  0  0  0  0  0
   -8.1498    6.4118   -0.0000 C   0  0  0  0  0  0  0  0  0  0  0  0
   -8.9953    5.1788   -0.0000 C   0  0  0  0  0  0  0  0  0  0  0  0
   -8.6547    7.8327   -0.0000 O   0  0  0  0  0  0  0  0  0  0  0  0
  1  2  1  0  0  0  0
  2  3  2  0  0  0  0
  2  4  1  0  0  0  0
  3  5  1  0  0  0  0
  3  6  1  0  0  0  0
  4  7  2  0  0  0  0
  4  8  1  0  0  0  0
  5  9  3  0  0  0  0
  6 10  2  0  0  0  0
  7 11  1  0  0  0  0
 11 12  2  0  0  0  0
 12 13  1  0  0  0  0
 12 14  1  0  0  0  0
 13 15  1  0  0  0  0
 16 14  1  1  0  0  0
 14 17  1  0  0  0  0
 16 18  1  0  0  0  0
 17 19  1  0  0  0  0
 18 20  1  6  0  0  0
  7 10  1  0  0  0  0
 15 16  1  0  0  0  0
 18 19  1  0  0  0  0
M  END
>  <MolRegNo>
520895

>  <m>
=

>  <Value>
0.3

>  <Unit>
nM

>  <Type>
Ki

>  <pValue>
9.52

>  <Ligand Efficiency>
0.65

>  <Binding Efficiency>
32.64

>  <Surface Efficiency>
13.83

>  <Assay Index>
346568

>  <Assay Category>


>  <Assay Organism>
Homo sapiens

>  <Target ID>
56

>  <Target Name>
Androgen Receptor

>  <Target Organism>
Homo sapiens

>  <Target Description>
Target is a single protein chain

>  <Sequence Accession>
P10275

>  <Reference>
J Med Chem 52 (9), 2794-2798 (2009)

>  <Pubmed ID>
19351168

>  <DOI>
10.1021/jm801583j

$$$$
520896
Actelion Java MolfileCreator 1.0

 24 26  0  0  0  0  0  0  0  0999 V2000
    0.0000   -0.0000   -0.0000 Cl  0  0  0  0  0  0  0  0  0  0  0  0
   -0.4701    1.4337   -0.0000 C   0  0  0  0  0  0  0  0  0  0  0  0
    0.5171    2.5502   -0.0000 C   0  0  0  0  0  0  0  0  0  0  0  0
   -1.9391    1.7510   -0.0000 C   0  0  0  0  0  0  0  0  0  0  0  0
    1.9626    2.2564   -0.0000 C   0  0  0  0  0  0  0  0  0  0  0  0
    0.0470    3.9839   -0.0000 C   0  0  0  0  0  0  0  0  0  0  0  0
   -2.4091    3.1848   -0.0000 C   0  0  0  0  0  0  0  0  0  0  0  0
   -2.9497    0.6581   -0.0000 C   0  0  0  0  0  0  0  0  0  0  0  0
    3.4080    1.9626   -0.0000 N   0  0  0  0  0  0  0  0  0  0  0  0
   -1.4220    4.3012   -0.0000 C   0  0  0  0  0  0  0  0  0  0  0  0
   -3.8781    3.5021   -0.0000 N   0  0  0  0  0  0  0  0  0  0  0  0
   -4.3482    4.9358   -0.0000 C   0  0  0  0  0  0  0  0  0  0  0  0
   -3.4786    6.1580   -0.0000 O   0  0  0  0  0  0  0  0  0  0  0  0
   -5.7819    5.4059   -0.0000 N   0  0  0  0  0  0  0  0  0  0  0  0
   -4.3717    7.3802   -0.0000 C   0  0  0  0  0  0  0  0  0  0  0  0
   -5.7937    6.9101   -0.0000 C   0  0  0  0  0  0  0  0  0  0  0  0
   -7.2157    4.9593   -0.0000 C   0  0  0  0  0  0  0  0  0  0  0  0
   -3.9251    8.8139   -0.0000 C   0  0  0  0  0  0  0  0  0  0  0  0
   -7.2274    7.3802   -0.0000 C   0  0  0  0  0  0  0  0  0  0  0  0
   -8.1088    6.1815   -0.0000 C   0  0  0  0  0  0  0  0  0  0  0  0
   -3.4786   10.2476   -0.0000 F   0  0  0  0  0  0  0  0  0  0  0  0
   -5.3589    9.2840   -0.0000 F   0  0  0  0  0  0  0  0  0  0  0  0
   -2.5149    8.3673   -0.0000 F   0  0  0  0  0  0  0  0  0  0  0  0
   -7.6975    8.8139   -0.0000 O   0  0  0  0  0  0  0  0  0  0  0  0
  1  2  1  0  0  0  0
  2  3  2  0  0  0  0
  2  4  1  0  0  0  0
  3  5  1  0  0  0  0
  3  6  1  0  0  0  0
  4  7  2  0  0  0  0
  4  8  1  0  0  0  0
  5  9  3  0  0  0  0
  6 10  2  0  0  0  0
  7 11  1  0  0  0  0
 11 12  2  0  0  0  0
 12 13  1  0  0  0  0
 12 14  1  0  0  0  0
 13 15  1  0  0  0  0
 16 14  1  6  0  0  0
 14 17  1  0  0  0  0
 15 18  1  1  0  0  0
 16 19  1  0  0  0  0
 17 20  1  0  0  0  0
 18 21  1  0  0  0  0
 18 22  1  0  0  0  0
 18 23  1  0  0  0  0
 19 24  1  1  0  0  0
  7 10  1  0  0  0  0
 15 16  1  0  0  0  0
 19 20  1  0  0  0  0
M  END
>  <MolRegNo>
520896

>  <m>
=

>  <Value>
0.3

>  <Unit>
nM

>  <Type>
Ki

>  <pValue>
9.52

>  <Ligand Efficiency>
0.54

>  <Binding Efficiency>
26.47

>  <Surface Efficiency>
13.83

>  <Assay Index>
346568

>  <Assay Category>


>  <Assay Organism>
Homo sapiens

>  <Target ID>
56

>  <Target Name>
Androgen Receptor

>  <Target Organism>
Homo sapiens

>  <Target Description>
Target is a single protein chain

>  <Sequence Accession>
P10275

>  <Reference>
J Med Chem 52 (9), 2794-2798 (2009)

>  <Pubmed ID>
19351168

>  <DOI>
10.1021/jm801583j

$$$$
520897
Actelion Java MolfileCreator 1.0

 24 26  0  0  0  0  0  0  0  0999 V2000
    0.0000   -0.0000   -0.0000 Cl  0  0  0  0  0  0  0  0  0  0  0  0
   -0.7401    1.3157   -0.0000 C   0  0  0  0  0  0  0  0  0  0  0  0
    0.0117    2.6079   -0.0000 C   0  0  0  0  0  0  0  0  0  0  0  0
   -2.2437    1.3509   -0.0000 C   0  0  0  0  0  0  0  0  0  0  0  0
    1.4802    2.6079   -0.0000 C   0  0  0  0  0  0  0  0  0  0  0  0
   -0.7283    3.9236   -0.0000 C   0  0  0  0  0  0  0  0  0  0  0  0
   -2.9721    2.6666   -0.0000 C   0  0  0  0  0  0  0  0  0  0  0  0
   -3.0190    0.0822   -0.0000 C   0  0  0  0  0  0  0  0  0  0  0  0
    2.9603    2.5961   -0.0000 N   0  0  0  0  0  0  0  0  0  0  0  0
   -2.2320    3.9588   -0.0000 C   0  0  0  0  0  0  0  0  0  0  0  0
   -4.4757    2.7019   -0.0000 N   0  0  0  0  0  0  0  0  0  0  0  0
   -5.2158    4.0176   -0.0000 C   0  0  0  0  0  0  0  0  0  0  0  0
   -4.3700    5.2510   -0.0000 O   0  0  0  0  0  0  0  0  0  0  0  0
   -6.6607    4.4640   -0.0000 N   0  0  0  0  0  0  0  0  0  0  0  0
   -5.2863    6.4492   -0.0000 C   0  0  0  0  0  0  0  0  0  0  0  0
   -6.7077    5.9676   -0.0000 C   0  0  0  0  0  0  0  0  0  0  0  0
   -8.0821    3.9823   -0.0000 C   0  0  0  0  0  0  0  0  0  0  0  0
   -4.8634    7.8942   -0.0000 C   0  0  0  0  0  0  0  0  0  0  0  0
   -8.1526    6.4140   -0.0000 C   0  0  0  0  0  0  0  0  0  0  0  0
   -8.9984    5.1805   -0.0000 C   0  0  0  0  0  0  0  0  0  0  0  0
   -6.3083    8.3053   -0.0000 F   0  0  0  0  0  0  0  0  0  0  0  0
   -4.4874    9.3508   -0.0000 F   0  0  0  0  0  0  0  0  0  0  0  0
   -3.4419    7.4947   -0.0000 F   0  0  0  0  0  0  0  0  0  0  0  0
   -8.6577    7.8354   -0.0000 O   0  0  0  0  0  0  0  0  0  0  0  0
  1  2  1  0  0  0  0
  2  3  2  0  0  0  0
  2  4  1  0  0  0  0
  3  5  1  0  0  0  0
  3  6  1  0  0  0  0
  4  7  2  0  0  0  0
  4  8  1  0  0  0  0
  5  9  3  0  0  0  0
  6 10  2  0  0  0  0
  7 11  1  0  0  0  0
 11 12  2  0  0  0  0
 12 13  1  0  0  0  0
 12 14  1  0  0  0  0
 13 15  1  0  0  0  0
 16 14  1  1  0  0  0
 14 17  1  0  0  0  0
 15 18  1  1  0  0  0
 16 19  1  0  0  0  0
 17 20  1  0  0  0  0
 18 21  1  0  0  0  0
 18 22  1  0  0  0  0
 18 23  1  0  0  0  0
 19 24  1  6  0  0  0
  7 10  1  0  0  0  0
 15 16  1  0  0  0  0
 19 20  1  0  0  0  0
M  END
>  <MolRegNo>
520897

>  <m>
=

>  <Value>
0.2

>  <Unit>
nM

>  <Type>
Ki

>  <pValue>
9.7

>  <Ligand Efficiency>
0.55

>  <Binding Efficiency>
26.96

>  <Surface Efficiency>
14.09

>  <Assay Index>
346568

>  <Assay Category>


>  <Assay Organism>
Homo sapiens

>  <Target ID>
56

>  <Target Name>
Androgen Receptor

>  <Target Organism>
Homo sapiens

>  <Target Description>
Target is a single protein chain

>  <Sequence Accession>
P10275

>  <Reference>
J Med Chem 52 (9), 2794-2798 (2009)

>  <Pubmed ID>
19351168

>  <DOI>
10.1021/jm801583j

$$$$
520898
Actelion Java MolfileCreator 1.0

 24 26  0  0  0  0  0  0  0  0999 V2000
    0.0000   -0.0000   -0.0000 Cl  0  0  0  0  0  0  0  0  0  0  0  0
   -0.7401    1.3157   -0.0000 C   0  0  0  0  0  0  0  0  0  0  0  0
    0.0117    2.6079   -0.0000 C   0  0  0  0  0  0  0  0  0  0  0  0
   -2.2437    1.3509   -0.0000 C   0  0  0  0  0  0  0  0  0  0  0  0
    1.4802    2.6079   -0.0000 C   0  0  0  0  0  0  0  0  0  0  0  0
   -0.7283    3.9236   -0.0000 C   0  0  0  0  0  0  0  0  0  0  0  0
   -2.9721    2.6666   -0.0000 C   0  0  0  0  0  0  0  0  0  0  0  0
   -3.0190    0.0822   -0.0000 C   0  0  0  0  0  0  0  0  0  0  0  0
    2.9603    2.5961   -0.0000 N   0  0  0  0  0  0  0  0  0  0  0  0
   -2.2320    3.9588   -0.0000 C   0  0  0  0  0  0  0  0  0  0  0  0
   -4.4757    2.7019   -0.0000 N   0  0  0  0  0  0  0  0  0  0  0  0
   -5.2158    4.0176   -0.0000 C   0  0  0  0  0  0  0  0  0  0  0  0
   -4.3700    5.2510   -0.0000 O   0  0  0  0  0  0  0  0  0  0  0  0
   -6.6607    4.4640   -0.0000 N   0  0  0  0  0  0  0  0  0  0  0  0
   -5.2863    6.4492   -0.0000 C   0  0  0  0  0  0  0  0  0  0  0  0
   -6.7077    5.9676   -0.0000 C   0  0  0  0  0  0  0  0  0  0  0  0
   -8.0821    3.9823   -0.0000 C   0  0  0  0  0  0  0  0  0  0  0  0
   -4.8634    7.8942   -0.0000 C   0  0  0  0  0  0  0  0  0  0  0  0
   -8.1526    6.4140   -0.0000 C   0  0  0  0  0  0  0  0  0  0  0  0
   -8.9984    5.1805   -0.0000 C   0  0  0  0  0  0  0  0  0  0  0  0
   -6.3083    8.3053   -0.0000 F   0  0  0  0  0  0  0  0  0  0  0  0
   -4.4874    9.3508   -0.0000 F   0  0  0  0  0  0  0  0  0  0  0  0
   -3.4419    7.4947   -0.0000 F   0  0  0  0  0  0  0  0  0  0  0  0
   -8.6577    7.8354   -0.0000 O   0  0  0  0  0  0  0  0  0  0  0  0
  1  2  1  0  0  0  0
  2  3  2  0  0  0  0
  2  4  1  0  0  0  0
  3  5  1  0  0  0  0
  3  6  1  0  0  0  0
  4  7  2  0  0  0  0
  4  8  1  0  0  0  0
  5  9  3  0  0  0  0
  6 10  2  0  0  0  0
  7 11  1  0  0  0  0
 11 12  2  0  0  0  0
 12 13  1  0  0  0  0
 12 14  1  0  0  0  0
 13 15  1  0  0  0  0
 16 14  1  1  0  0  0
 14 17  1  0  0  0  0
 15 18  1  1  0  0  0
 16 19  1  0  0  0  0
 17 20  1  0  0  0  0
 18 21  1  0  0  0  0
 18 22  1  0  0  0  0
 18 23  1  0  0  0  0
 19 24  1  1  0  0  0
  7 10  1  0  0  0  0
 15 16  1  0  0  0  0
 19 20  1  0  0  0  0
M  END
>  <MolRegNo>
520898

>  <m>
=

>  <Value>
2.3

>  <Unit>
nM

>  <Type>
Ki

>  <pValue>
8.64

>  <Ligand Efficiency>
0.49

>  <Binding Efficiency>
24.01

>  <Surface Efficiency>
12.55

>  <Assay Index>
346568

>  <Assay Category>


>  <Assay Organism>
Homo sapiens

>  <Target ID>
56

>  <Target Name>
Androgen Receptor

>  <Target Organism>
Homo sapiens

>  <Target Description>
Target is a single protein chain

>  <Sequence Accession>
P10275

>  <Reference>
J Med Chem 52 (9), 2794-2798 (2009)

>  <Pubmed ID>
19351168

>  <DOI>
10.1021/jm801583j

$$$$
520899
Actelion Java MolfileCreator 1.0

 24 26  0  0  0  0  0  0  0  0999 V2000
    0.0000   -0.0000   -0.0000 Cl  0  0  0  0  0  0  0  0  0  0  0  0
   -0.7404    1.3163   -0.0000 C   0  0  0  0  0  0  0  0  0  0  0  0
    0.0118    2.6091   -0.0000 C   0  0  0  0  0  0  0  0  0  0  0  0
   -2.2447    1.3515   -0.0000 C   0  0  0  0  0  0  0  0  0  0  0  0
    1.4808    2.6091   -0.0000 C   0  0  0  0  0  0  0  0  0  0  0  0
   -0.7287    3.9254   -0.0000 C   0  0  0  0  0  0  0  0  0  0  0  0
   -2.9734    2.6678   -0.0000 C   0  0  0  0  0  0  0  0  0  0  0  0
   -3.0204    0.0823   -0.0000 C   0  0  0  0  0  0  0  0  0  0  0  0
    2.9617    2.5973   -0.0000 N   0  0  0  0  0  0  0  0  0  0  0  0
   -2.2330    3.9606   -0.0000 C   0  0  0  0  0  0  0  0  0  0  0  0
   -4.4777    2.7031   -0.0000 N   0  0  0  0  0  0  0  0  0  0  0  0
   -5.2182    4.0194   -0.0000 C   0  0  0  0  0  0  0  0  0  0  0  0
   -4.3837    5.2534   -0.0000 O   0  0  0  0  0  0  0  0  0  0  0  0
   -6.6637    4.4660   -0.0000 N   0  0  0  0  0  0  0  0  0  0  0  0
   -5.3004    6.4522   -0.0000 C   0  0  0  0  0  0  0  0  0  0  0  0
   -6.7107    5.9703   -0.0000 C   0  0  0  0  0  0  0  0  0  0  0  0
   -8.0858    3.9841   -0.0000 C   0  0  0  0  0  0  0  0  0  0  0  0
   -4.8773    7.8977   -0.0000 C   0  0  0  0  0  0  0  0  0  0  0  0
   -8.1563    6.4169   -0.0000 C   0  0  0  0  0  0  0  0  0  0  0  0
   -9.0025    5.1829   -0.0000 C   0  0  0  0  0  0  0  0  0  0  0  0
   -6.3229    8.3091   -0.0000 F   0  0  0  0  0  0  0  0  0  0  0  0
   -4.5012    9.3551   -0.0000 F   0  0  0  0  0  0  0  0  0  0  0  0
   -3.4553    7.4982   -0.0000 F   0  0  0  0  0  0  0  0  0  0  0  0
   -8.6617    7.8390   -0.0000 O   0  0  0  0  0  0  0  0  0  0  0  0
  1  2  1  0  0  0  0
  2  3  2  0  0  0  0
  2  4  1  0  0  0  0
  3  5  1  0  0  0  0
  3  6  1  0  0  0  0
  4  7  2  0  0  0  0
  4  8  1  0  0  0  0
  5  9  3  0  0  0  0
  6 10  2  0  0  0  0
  7 11  1  0  0  0  0
 11 12  2  0  0  0  0
 12 13  1  0  0  0  0
 12 14  1  0  0  0  0
 13 15  1  0  0  0  0
 16 14  1  6  0  0  0
 14 17  1  0  0  0  0
 15 18  1  1  0  0  0
 16 19  1  0  0  0  0
 17 20  1  0  0  0  0
 18 21  1  0  0  0  0
 18 22  1  0  0  0  0
 18 23  1  0  0  0  0
 19 24  1  6  0  0  0
  7 10  1  0  0  0  0
 15 16  1  0  0  0  0
 19 20  1  0  0  0  0
M  END
>  <MolRegNo>
520899

>  <m>
=

>  <Value>
0.3

>  <Unit>
nM

>  <Type>
Ki

>  <pValue>
9.52

>  <Ligand Efficiency>
0.54

>  <Binding Efficiency>
26.47

>  <Surface Efficiency>
13.83

>  <Assay Index>
346568

>  <Assay Category>


>  <Assay Organism>
Homo sapiens

>  <Target ID>
56

>  <Target Name>
Androgen Receptor

>  <Target Organism>
Homo sapiens

>  <Target Description>
Target is a single protein chain

>  <Sequence Accession>
P10275

>  <Reference>
J Med Chem 52 (9), 2794-2798 (2009)

>  <Pubmed ID>
19351168

>  <DOI>
10.1021/jm801583j

$$$$
520965
Actelion Java MolfileCreator 1.0

 23 25  0  0  0  0  0  0  0  0999 V2000
    0.0000   -0.0000   -0.0000 Cl  0  0  0  0  0  0  0  0  0  0  0  0
   -0.7401    1.3157   -0.0000 C   0  0  0  0  0  0  0  0  0  0  0  0
    0.0117    2.6080   -0.0000 C   0  0  0  0  0  0  0  0  0  0  0  0
   -2.2438    1.3510   -0.0000 C   0  0  0  0  0  0  0  0  0  0  0  0
    1.4802    2.6080   -0.0000 C   0  0  0  0  0  0  0  0  0  0  0  0
   -0.7283    3.9237   -0.0000 C   0  0  0  0  0  0  0  0  0  0  0  0
   -2.9721    2.6667   -0.0000 C   0  0  0  0  0  0  0  0  0  0  0  0
   -3.0191    0.0822   -0.0000 C   0  0  0  0  0  0  0  0  0  0  0  0
    2.9604    2.5962   -0.0000 N   0  0  0  0  0  0  0  0  0  0  0  0
   -2.2320    3.9589   -0.0000 C   0  0  0  0  0  0  0  0  0  0  0  0
   -4.4758    2.7019   -0.0000 N   0  0  0  0  0  0  0  0  0  0  0  0
   -5.2159    4.0177   -0.0000 C   0  0  0  0  0  0  0  0  0  0  0  0
   -4.3818    5.2512   -0.0000 O   0  0  0  0  0  0  0  0  0  0  0  0
   -6.6609    4.4641   -0.0000 N   0  0  0  0  0  0  0  0  0  0  0  0
   -5.2981    6.4494   -0.0000 C   0  0  0  0  0  0  0  0  0  0  0  0
   -6.7079    5.9678   -0.0000 C   0  0  0  0  0  0  0  0  0  0  0  0
   -8.0823    3.9824   -0.0000 C   0  0  0  0  0  0  0  0  0  0  0  0
   -4.8752    7.8944   -0.0000 C   0  0  0  0  0  0  0  0  0  0  0  0
   -8.1528    6.4142   -0.0000 C   0  0  0  0  0  0  0  0  0  0  0  0
   -8.9986    5.1807   -0.0000 C   0  0  0  0  0  0  0  0  0  0  0  0
   -5.9090    8.9986   -0.0000 C   0  0  0  0  0  0  0  0  0  0  0  0
   -3.4303    8.2468   -0.0000 C   0  0  0  0  0  0  0  0  0  0  0  0
   -8.6579    7.8356   -0.0000 O   0  0  0  0  0  0  0  0  0  0  0  0
  1  2  1  0  0  0  0
  2  3  2  0  0  0  0
  2  4  1  0  0  0  0
  3  5  1  0  0  0  0
  3  6  1  0  0  0  0
  4  7  2  0  0  0  0
  4  8  1  0  0  0  0
  5  9  3  0  0  0  0
  6 10  2  0  0  0  0
  7 11  1  0  0  0  0
 11 12  2  0  0  0  0
 12 13  1  0  0  0  0
 12 14  1  0  0  0  0
 13 15  1  0  0  0  0
 16 14  1  1  0  0  0
 14 17  1  0  0  0  0
 15 18  1  6  0  0  0
 16 19  1  0  0  0  0
 17 20  1  0  0  0  0
 18 21  1  0  0  0  0
 18 22  1  0  0  0  0
 19 23  1  1  0  0  0
  7 10  1  0  0  0  0
 15 16  1  0  0  0  0
 19 20  1  0  0  0  0
M  END
>  <MolRegNo>
520965

>  <m>
=

>  <Value>
0.7

>  <Unit>
nM

>  <Type>
Ki

>  <pValue>
9.15

>  <Ligand Efficiency>
0.54

>  <Binding Efficiency>
27.42

>  <Surface Efficiency>
13.3

>  <Assay Index>
346568

>  <Assay Category>


>  <Assay Organism>
Homo sapiens

>  <Target ID>
56

>  <Target Name>
Androgen Receptor

>  <Target Organism>
Homo sapiens

>  <Target Description>
Target is a single protein chain

>  <Sequence Accession>
P10275

>  <Reference>
J Med Chem 52 (9), 2794-2798 (2009)

>  <Pubmed ID>
19351168

>  <DOI>
10.1021/jm801583j

$$$$
520966
Actelion Java MolfileCreator 1.0

 20 22  0  0  0  0  0  0  0  0999 V2000
    0.0000   -0.0000   -0.0000 Cl  0  0  0  0  0  0  0  0  0  0  0  0
   -0.7624    1.3020   -0.0000 C   0  0  0  0  0  0  0  0  0  0  0  0
   -0.0352    2.6157   -0.0000 C   0  0  0  0  0  0  0  0  0  0  0  0
   -2.2638    1.3020   -0.0000 C   0  0  0  0  0  0  0  0  0  0  0  0
    1.4428    2.6392   -0.0000 C   0  0  0  0  0  0  0  0  0  0  0  0
   -0.8093    3.9177   -0.0000 C   0  0  0  0  0  0  0  0  0  0  0  0
   -3.0263    2.6040   -0.0000 C   0  0  0  0  0  0  0  0  0  0  0  0
   -3.0145    0.0235   -0.0000 C   0  0  0  0  0  0  0  0  0  0  0  0
    2.9207    2.6626   -0.0000 N   0  0  0  0  0  0  0  0  0  0  0  0
   -2.3107    3.9177   -0.0000 C   0  0  0  0  0  0  0  0  0  0  0  0
   -4.4925    2.9090   -0.0000 N   0  0  0  0  0  0  0  0  0  0  0  0
   -4.9968    4.3283   -0.0000 C   0  0  0  0  0  0  0  0  0  0  0  0
   -6.4396    4.7740   -0.0000 N   0  0  0  0  0  0  0  0  0  0  0  0
   -4.1523    5.5599   -0.0000 N   0  0  0  0  0  0  0  0  0  0  0  0
   -6.4865    6.2754   -0.0000 C   0  0  0  0  0  0  0  0  0  0  0  0
   -7.8589    4.2931   -0.0000 C   0  0  0  0  0  0  0  0  0  0  0  0
   -5.0672    6.7563   -0.0000 C   0  0  0  0  0  0  0  0  0  0  0  0
   -7.9293    6.7211   -0.0000 C   0  0  0  0  0  0  0  0  0  0  0  0
   -8.7738    5.4895   -0.0000 C   0  0  0  0  0  0  0  0  0  0  0  0
   -8.4336    8.1404   -0.0000 O   0  0  0  0  0  0  0  0  0  0  0  0
  1  2  1  0  0  0  0
  2  3  2  0  0  0  0
  2  4  1  0  0  0  0
  3  5  1  0  0  0  0
  3  6  1  0  0  0  0
  4  7  2  0  0  0  0
  4  8  1  0  0  0  0
  5  9  3  0  0  0  0
  6 10  2  0  0  0  0
  7 11  1  0  0  0  0
 11 12  2  0  0  0  0
 12 13  1  0  0  0  0
 12 14  1  0  0  0  0
 15 13  1  6  0  0  0
 13 16  1  0  0  0  0
 14 17  1  0  0  0  0
 15 18  1  0  0  0  0
 16 19  1  0  0  0  0
 18 20  1  6  0  0  0
  7 10  1  0  0  0  0
 15 17  1  0  0  0  0
 18 19  1  0  0  0  0
M  END
>  <MolRegNo>
520966

>  <m>
=

>  <Value>
10

>  <Unit>
nM

>  <Type>
Ki

>  <pValue>
8

>  <Ligand Efficiency>
0.55

>  <Binding Efficiency>
27.52

>  <Surface Efficiency>
11.17

>  <Assay Index>
346568

>  <Assay Category>


>  <Assay Organism>
Homo sapiens

>  <Target ID>
56

>  <Target Name>
Androgen Receptor

>  <Target Organism>
Homo sapiens

>  <Target Description>
Target is a single protein chain

>  <Sequence Accession>
P10275

>  <Reference>
J Med Chem 52 (9), 2794-2798 (2009)

>  <Pubmed ID>
19351168

>  <DOI>
10.1021/jm801583j

$$$$
520967
Actelion Java MolfileCreator 1.0

 21 23  0  0  0  0  0  0  0  0999 V2000
    0.0000   -0.0000   -0.0000 Cl  0  0  0  0  0  0  0  0  0  0  0  0
   -0.7629    1.3028   -0.0000 C   0  0  0  0  0  0  0  0  0  0  0  0
   -0.0352    2.6173   -0.0000 C   0  0  0  0  0  0  0  0  0  0  0  0
   -2.2652    1.3028   -0.0000 C   0  0  0  0  0  0  0  0  0  0  0  0
    1.4436    2.6408   -0.0000 C   0  0  0  0  0  0  0  0  0  0  0  0
   -0.8098    3.9201   -0.0000 C   0  0  0  0  0  0  0  0  0  0  0  0
   -3.0281    2.6056   -0.0000 C   0  0  0  0  0  0  0  0  0  0  0  0
   -3.0164    0.0235   -0.0000 C   0  0  0  0  0  0  0  0  0  0  0  0
    2.9225    2.6643   -0.0000 N   0  0  0  0  0  0  0  0  0  0  0  0
   -2.3122    3.9201   -0.0000 C   0  0  0  0  0  0  0  0  0  0  0  0
   -4.4952    2.9108   -0.0000 N   0  0  0  0  0  0  0  0  0  0  0  0
   -4.9999    4.3309   -0.0000 C   0  0  0  0  0  0  0  0  0  0  0  0
   -6.4436    4.7769   -0.0000 N   0  0  0  0  0  0  0  0  0  0  0  0
   -4.1549    5.5633   -0.0000 N   0  0  0  0  0  0  0  0  0  0  0  0
   -6.4905    6.2793   -0.0000 C   0  0  0  0  0  0  0  0  0  0  0  0
   -7.8637    4.2957   -0.0000 C   0  0  0  0  0  0  0  0  0  0  0  0
   -5.0704    6.7605   -0.0000 C   0  0  0  0  0  0  0  0  0  0  0  0
   -2.6760    5.6103   -0.0000 C   0  0  0  0  0  0  0  0  0  0  0  0
   -7.9342    6.7253   -0.0000 C   0  0  0  0  0  0  0  0  0  0  0  0
   -8.7792    5.4929   -0.0000 C   0  0  0  0  0  0  0  0  0  0  0  0
   -8.4389    8.1454   -0.0000 O   0  0  0  0  0  0  0  0  0  0  0  0
  1  2  1  0  0  0  0
  2  3  2  0  0  0  0
  2  4  1  0  0  0  0
  3  5  1  0  0  0  0
  3  6  1  0  0  0  0
  4  7  2  0  0  0  0
  4  8  1  0  0  0  0
  5  9  3  0  0  0  0
  6 10  2  0  0  0  0
  7 11  1  0  0  0  0
 11 12  2  0  0  0  0
 12 13  1  0  0  0  0
 12 14  1  0  0  0  0
 15 13  1  6  0  0  0
 13 16  1  0  0  0  0
 14 17  1  0  0  0  0
 14 18  1  0  0  0  0
 15 19  1  0  0  0  0
 16 20  1  0  0  0  0
 19 21  1  6  0  0  0
  7 10  1  0  0  0  0
 15 17  1  0  0  0  0
 19 20  1  0  0  0  0
M  END
>  <MolRegNo>
520967

>  <m>
=

>  <Value>
1.9

>  <Unit>
nM

>  <Type>
Ki

>  <pValue>
8.72

>  <Ligand Efficiency>
0.57

>  <Binding Efficiency>
28.61

>  <Surface Efficiency>
13.87

>  <Assay Index>
346568

>  <Assay Category>


>  <Assay Organism>
Homo sapiens

>  <Target ID>
56

>  <Target Name>
Androgen Receptor

>  <Target Organism>
Homo sapiens

>  <Target Description>
Target is a single protein chain

>  <Sequence Accession>
P10275

>  <Reference>
J Med Chem 52 (9), 2794-2798 (2009)

>  <Pubmed ID>
19351168

>  <DOI>
10.1021/jm801583j

$$$$
520968
Actelion Java MolfileCreator 1.0

 23 25  0  0  0  0  0  0  0  0999 V2000
    0.0000   -0.0000   -0.0000 Cl  0  0  0  0  0  0  0  0  0  0  0  0
   -0.7635    1.3038   -0.0000 C   0  0  0  0  0  0  0  0  0  0  0  0
   -0.0352    2.6194   -0.0000 C   0  0  0  0  0  0  0  0  0  0  0  0
   -2.2670    1.3038   -0.0000 C   0  0  0  0  0  0  0  0  0  0  0  0
    1.4448    2.6429   -0.0000 C   0  0  0  0  0  0  0  0  0  0  0  0
   -0.8105    3.9232   -0.0000 C   0  0  0  0  0  0  0  0  0  0  0  0
   -3.0305    2.6076   -0.0000 C   0  0  0  0  0  0  0  0  0  0  0  0
   -3.0187    0.0235   -0.0000 C   0  0  0  0  0  0  0  0  0  0  0  0
    2.9248    2.6664   -0.0000 N   0  0  0  0  0  0  0  0  0  0  0  0
   -2.3140    3.9232   -0.0000 C   0  0  0  0  0  0  0  0  0  0  0  0
   -4.4988    2.9130   -0.0000 N   0  0  0  0  0  0  0  0  0  0  0  0
   -5.0038    4.3343   -0.0000 C   0  0  0  0  0  0  0  0  0  0  0  0
   -4.1581    5.5676   -0.0000 N   0  0  0  0  0  0  0  0  0  0  0  0
   -6.4486    4.7807   -0.0000 N   0  0  0  0  0  0  0  0  0  0  0  0
   -2.6781    5.6146   -0.0000 C   0  0  0  0  0  0  0  0  0  0  0  0
   -5.0743    6.7658   -0.0000 C   0  0  0  0  0  0  0  0  0  0  0  0
   -6.4956    6.2842   -0.0000 C   0  0  0  0  0  0  0  0  0  0  0  0
   -7.8699    4.2991   -0.0000 C   0  0  0  0  0  0  0  0  0  0  0  0
   -1.9146    4.3461   -0.0000 O   0  0  0  0  0  0  0  0  0  0  0  0
   -1.9733    6.9302   -0.0000 N   0  0  0  0  0  0  0  0  0  0  0  0
   -7.9404    6.7305   -0.0000 C   0  0  0  0  0  0  0  0  0  0  0  0
   -8.7861    5.4972   -0.0000 C   0  0  0  0  0  0  0  0  0  0  0  0
   -8.4454    8.1518   -0.0000 O   0  0  0  0  0  0  0  0  0  0  0  0
  1  2  1  0  0  0  0
  2  3  2  0  0  0  0
  2  4  1  0  0  0  0
  3  5  1  0  0  0  0
  3  6  1  0  0  0  0
  4  7  2  0  0  0  0
  4  8  1  0  0  0  0
  5  9  3  0  0  0  0
  6 10  2  0  0  0  0
  7 11  1  0  0  0  0
 11 12  2  0  0  0  0
 12 13  1  0  0  0  0
 12 14  1  0  0  0  0
 13 15  1  0  0  0  0
 13 16  1  0  0  0  0
 17 14  1  6  0  0  0
 14 18  1  0  0  0  0
 15 19  2  0  0  0  0
 15 20  1  0  0  0  0
 17 21  1  0  0  0  0
 18 22  1  0  0  0  0
 21 23  1  6  0  0  0
  7 10  1  0  0  0  0
 16 17  1  0  0  0  0
 21 22  1  0  0  0  0
M  END
>  <MolRegNo>
520968

>  <m>
=

>  <Value>
19

>  <Unit>
nM

>  <Type>
Ki

>  <pValue>
7.72

>  <Ligand Efficiency>
0.46

>  <Binding Efficiency>
23.13

>  <Surface Efficiency>
7.29

>  <Assay Index>
346568

>  <Assay Category>


>  <Assay Organism>
Homo sapiens

>  <Target ID>
56

>  <Target Name>
Androgen Receptor

>  <Target Organism>
Homo sapiens

>  <Target Description>
Target is a single protein chain

>  <Sequence Accession>
P10275

>  <Reference>
J Med Chem 52 (9), 2794-2798 (2009)

>  <Pubmed ID>
19351168

>  <DOI>
10.1021/jm801583j

$$$$
520969
Actelion Java MolfileCreator 1.0

 23 25  0  0  0  0  0  0  0  0999 V2000
    0.0000   -0.0000   -0.0000 Cl  0  0  0  0  0  0  0  0  0  0  0  0
   -0.7641    1.3049   -0.0000 C   0  0  0  0  0  0  0  0  0  0  0  0
   -0.0353    2.6215   -0.0000 C   0  0  0  0  0  0  0  0  0  0  0  0
   -2.2689    1.3049   -0.0000 C   0  0  0  0  0  0  0  0  0  0  0  0
    1.4460    2.6451   -0.0000 C   0  0  0  0  0  0  0  0  0  0  0  0
   -0.8111    3.9264   -0.0000 C   0  0  0  0  0  0  0  0  0  0  0  0
   -3.0330    2.6098   -0.0000 C   0  0  0  0  0  0  0  0  0  0  0  0
   -3.0212    0.0235   -0.0000 C   0  0  0  0  0  0  0  0  0  0  0  0
    2.9272    2.6686   -0.0000 N   0  0  0  0  0  0  0  0  0  0  0  0
   -2.3159    3.9264   -0.0000 C   0  0  0  0  0  0  0  0  0  0  0  0
   -4.5377    2.5980   -0.0000 N   0  0  0  0  0  0  0  0  0  0  0  0
   -5.4077    1.3872   -0.0000 C   0  0  0  0  0  0  0  0  0  0  0  0
   -5.4547    3.7971   -0.0000 C   0  0  0  0  0  0  0  0  0  0  0  0
   -6.8536    1.8339   -0.0000 N   0  0  0  0  0  0  0  0  0  0  0  0
   -4.9257   -0.0118   -0.0000 N   0  0  0  0  0  0  0  0  0  0  0  0
   -6.8771    3.3151   -0.0000 C   0  0  0  0  0  0  0  0  0  0  0  0
   -5.0315    5.2431   -0.0000 C   0  0  0  0  0  0  0  0  0  0  0  0
   -8.2761    1.3519   -0.0000 C   0  0  0  0  0  0  0  0  0  0  0  0
   -5.9132   -1.1286   -0.0000 C   0  0  0  0  0  0  0  0  0  0  0  0
   -8.3231    3.7619   -0.0000 C   0  0  0  0  0  0  0  0  0  0  0  0
   -9.1930    2.5510   -0.0000 C   0  0  0  0  0  0  0  0  0  0  0  0
   -6.9007   -2.2454   -0.0000 N   0  0  0  0  0  0  0  0  0  0  0  0
   -8.8286    5.1843   -0.0000 O   0  0  0  0  0  0  0  0  0  0  0  0
  1  2  1  0  0  0  0
  2  3  2  0  0  0  0
  2  4  1  0  0  0  0
  3  5  1  0  0  0  0
  3  6  1  0  0  0  0
  4  7  2  0  0  0  0
  4  8  1  0  0  0  0
  5  9  3  0  0  0  0
  6 10  2  0  0  0  0
  7 11  1  0  0  0  0
 11 12  1  0  0  0  0
 11 13  1  0  0  0  0
 12 14  1  0  0  0  0
 12 15  1  0  0  0  0
 13 16  1  0  0  0  0
 13 17  1  1  0  0  0
 14 18  1  0  0  0  0
 15 19  1  0  0  0  0
 16 20  1  0  0  0  0
 18 21  1  0  0  0  0
 19 22  3  0  0  0  0
 20 23  1  1  0  0  0
  7 10  1  0  0  0  0
 16 14  1  6  0  0  0
 20 21  1  0  0  0  0
M  END
>  <MolRegNo>
520969

>  <m>
=

>  <Value>
17

>  <Unit>
nM

>  <Type>
Ki

>  <pValue>
7.77

>  <Ligand Efficiency>
0.46

>  <Binding Efficiency>
23.42

>  <Surface Efficiency>
9

>  <Assay Index>
346568

>  <Assay Category>


>  <Assay Organism>
Homo sapiens

>  <Target ID>
56

>  <Target Name>
Androgen Receptor

>  <Target Organism>
Homo sapiens

>  <Target Description>
Target is a single protein chain

>  <Sequence Accession>
P10275

>  <Reference>
J Med Chem 52 (9), 2794-2798 (2009)

>  <Pubmed ID>
19351168

>  <DOI>
10.1021/jm801583j

$$$$
204763
Actelion Java MolfileCreator 1.0

 31 32  0  0  0  0  0  0  0  0999 V2000
    0.0000   -0.0000   -0.0000 Cl  0  0  0  0  0  0  0  0  0  0  0  0
   -1.3005   -0.7330   -0.0000 C   0  0  0  0  0  0  0  0  0  0  0  0
   -2.6010    0.0236   -0.0000 C   0  0  0  0  0  0  0  0  0  0  0  0
   -2.6128    1.5251   -0.0000 O   0  0  0  0  0  0  0  0  0  0  0  0
   -3.9015   -0.7094   -0.0000 N   0  0  0  0  0  0  0  0  0  0  0  0
   -5.2020    0.0473   -0.0000 C   0  0  0  0  0  0  0  0  0  0  0  0
   -6.5143   -0.6857   -0.0000 C   0  0  0  0  0  0  0  0  0  0  0  0
   -5.2138    1.5606   -0.0000 C   0  0  0  0  0  0  0  0  0  0  0  0
   -7.8148    0.0709   -0.0000 C   0  0  0  0  0  0  0  0  0  0  0  0
   -6.5143    2.3173   -0.0000 C   0  0  0  0  0  0  0  0  0  0  0  0
   -7.8148    1.5724   -0.0000 C   0  0  0  0  0  0  0  0  0  0  0  0
   -9.1153    2.3291   -0.0000 S   0  0  0  0  0  0  0  0  0  0  0  0
  -10.4158    1.5961   -0.0000 C   0  0  0  0  0  0  0  0  0  0  0  0
  -11.7045    2.3527   -0.0000 C   0  0  0  0  0  0  0  0  0  0  0  0
  -12.4494    1.0640   -0.0000 O   0  0  0  0  0  0  0  0  0  0  0  0
  -13.0050    3.1094   -0.0000 C   0  0  0  0  0  0  0  0  0  0  0  0
  -10.9715    3.6532   -0.0000 C   0  0  0  0  0  0  0  0  0  0  0  0
  -13.0168    4.6109   -0.0000 O   0  0  0  0  0  0  0  0  0  0  0  0
  -14.3055    2.3764   -0.0000 N   0  0  0  0  0  0  0  0  0  0  0  0
  -15.6060    3.1330   -0.0000 C   0  0  0  0  0  0  0  0  0  0  0  0
  -16.9184    2.4000   -0.0000 C   0  0  0  0  0  0  0  0  0  0  0  0
  -15.6179    4.6463   -0.0000 C   0  0  0  0  0  0  0  0  0  0  0  0
  -18.2189    3.1567   -0.0000 C   0  0  0  0  0  0  0  0  0  0  0  0
  -16.9302    5.3912   -0.0000 C   0  0  0  0  0  0  0  0  0  0  0  0
  -18.2307    4.6582   -0.0000 C   0  0  0  0  0  0  0  0  0  0  0  0
  -19.5194    2.4237   -0.0000 C   0  0  0  0  0  0  0  0  0  0  0  0
  -19.5312    5.4148   -0.0000 C   0  0  0  0  0  0  0  0  0  0  0  0
  -20.8317    1.7025   -0.0000 F   0  0  0  0  0  0  0  0  0  0  0  0
  -18.7863    1.1468   -0.0000 F   0  0  0  0  0  0  0  0  0  0  0  0
  -20.2760    3.7242   -0.0000 F   0  0  0  0  0  0  0  0  0  0  0  0
  -20.8317    6.1715   -0.0000 N   0  0  0  0  0  0  0  0  0  0  0  0
  1  2  1  0  0  0  0
  2  3  1  0  0  0  0
  3  4  2  0  0  0  0
  3  5  1  0  0  0  0
  5  6  1  0  0  0  0
  6  7  2  0  0  0  0
  6  8  1  0  0  0  0
  7  9  1  0  0  0  0
  8 10  2  0  0  0  0
  9 11  2  0  0  0  0
 11 12  1  0  0  0  0
 12 13  1  0  0  0  0
 13 14  1  0  0  0  0
 14 15  1  0  0  0  0
 14 16  1  6  0  0  0
 14 17  1  0  0  0  0
 16 18  2  0  0  0  0
 16 19  1  0  0  0  0
 19 20  1  0  0  0  0
 20 21  2  0  0  0  0
 20 22  1  0  0  0  0
 21 23  1  0  0  0  0
 22 24  2  0  0  0  0
 23 25  2  0  0  0  0
 23 26  1  0  0  0  0
 25 27  1  0  0  0  0
 26 28  1  0  0  0  0
 26 29  1  0  0  0  0
 26 30  1  0  0  0  0
 27 31  3  0  0  0  0
 10 11  1  0  0  0  0
 24 25  1  0  0  0  0
M  END
>  <MolRegNo>
204763

>  <m>
=

>  <Value>
1.65

>  <Unit>
nM

>  <Type>
Ki

>  <pValue>
8.78

>  <Ligand Efficiency>
0

>  <Binding Efficiency>
0

>  <Surface Efficiency>
0

>  <Assay Index>
372491

>  <Assay Category>


>  <Assay Organism>


>  <Target ID>
56

>  <Target Name>
Androgen Receptor

>  <Target Organism>
Homo sapiens

>  <Target Description>
Target is a single protein chain

>  <Sequence Accession>
P10275

>  <Reference>
J Med Chem 52 (12), 3597-3617 (2009)

>  <Pubmed ID>
19432422

>  <DOI>
10.1021/jm900280m

$$$$
205090
Actelion Java MolfileCreator 1.0

 31 32  0  0  0  0  0  0  0  0999 V2000
    0.0000   -0.0000   -0.0000 F   0  0  0  0  0  0  0  0  0  0  0  0
   -1.3143   -0.7459   -0.0000 C   0  0  0  0  0  0  0  0  0  0  0  0
   -2.0720    0.5683   -0.0000 F   0  0  0  0  0  0  0  0  0  0  0  0
   -0.5802   -2.0365   -0.0000 F   0  0  0  0  0  0  0  0  0  0  0  0
   -2.6285   -1.4800   -0.0000 C   0  0  0  0  0  0  0  0  0  0  0  0
   -3.9428   -0.7223   -0.0000 C   0  0  0  0  0  0  0  0  0  0  0  0
   -2.6404   -2.9719   -0.0000 C   0  0  0  0  0  0  0  0  0  0  0  0
   -3.9546    0.7933   -0.0000 N   0  0  0  0  0  0  0  0  0  0  0  0
   -5.2571   -1.4564   -0.0000 C   0  0  0  0  0  0  0  0  0  0  0  0
   -3.9546   -3.7060   -0.0000 C   0  0  0  0  0  0  0  0  0  0  0  0
   -2.6641    1.5511   -0.0000 O   0  0  0  0  0  0  0  0  0  0  0  0
   -5.2689    1.5511   -0.0000 O   0  0  0  0  0  0  0  0  0  0  0  0
   -5.2689   -2.9482   -0.0000 C   0  0  0  0  0  0  0  0  0  0  0  0
   -3.9665   -5.1979   -0.0000 N   0  0  0  0  0  0  0  0  0  0  0  0
   -2.6759   -5.9320   -0.0000 C   0  0  0  0  0  0  0  0  0  0  0  0
   -1.3853   -5.1742   -0.0000 O   0  0  0  0  0  0  0  0  0  0  0  0
   -2.6877   -7.4238   -0.0000 C   0  0  0  0  0  0  0  0  0  0  0  0
   -1.1959   -7.4120   -0.0000 O   0  0  0  0  0  0  0  0  0  0  0  0
   -2.6996   -8.9157   -0.0000 C   0  0  0  0  0  0  0  0  0  0  0  0
   -4.2033   -7.4120   -0.0000 C   0  0  0  0  0  0  0  0  0  0  0  0
   -1.4090   -9.6498   -0.0000 O   0  0  0  0  0  0  0  0  0  0  0  0
   -1.4208  -11.1417   -0.0000 C   0  0  0  0  0  0  0  0  0  0  0  0
   -0.1302  -11.8876   -0.0000 C   0  0  0  0  0  0  0  0  0  0  0  0
   -2.7351  -11.8876   -0.0000 C   0  0  0  0  0  0  0  0  0  0  0  0
   -0.1421  -13.3795   -0.0000 C   0  0  0  0  0  0  0  0  0  0  0  0
   -2.7469  -13.3795   -0.0000 C   0  0  0  0  0  0  0  0  0  0  0  0
   -1.4564  -14.1136   -0.0000 C   0  0  0  0  0  0  0  0  0  0  0  0
   -1.4682  -15.6055   -0.0000 N   0  0  0  0  0  0  0  0  0  0  0  0
   -2.7825  -16.3396   -0.0000 C   0  0  0  0  0  0  0  0  0  0  0  0
   -4.0967  -15.5818   -0.0000 O   0  0  0  0  0  0  0  0  0  0  0  0
   -2.7943  -17.8314   -0.0000 C   0  0  0  0  0  0  0  0  0  0  0  0
  1  2  1  0  0  0  0
  2  3  1  0  0  0  0
  2  4  1  0  0  0  0
  2  5  1  0  0  0  0
  5  6  2  0  0  0  0
  5  7  1  0  0  0  0
  6  8  1  0  0  0  0
  6  9  1  0  0  0  0
  7 10  2  0  0  0  0
  8 11  2  0  0  0  0
  8 12  1  0  0  0  0
  9 13  2  0  0  0  0
 10 14  1  0  0  0  0
 14 15  1  0  0  0  0
 15 16  2  0  0  0  0
 17 15  1  1  0  0  0
 17 18  1  0  0  0  0
 17 19  1  0  0  0  0
 17 20  1  0  0  0  0
 19 21  1  0  0  0  0
 21 22  1  0  0  0  0
 22 23  2  0  0  0  0
 22 24  1  0  0  0  0
 23 25  1  0  0  0  0
 24 26  2  0  0  0  0
 25 27  2  0  0  0  0
 27 28  1  0  0  0  0
 28 29  1  0  0  0  0
 29 30  2  0  0  0  0
 29 31  1  0  0  0  0
 10 13  1  0  0  0  0
 26 27  1  0  0  0  0
M  CHG  2   8   1  12  -1
M  END
>  <MolRegNo>
205090

>  <m>
=

>  <Value>
4

>  <Unit>
nM

>  <Type>
Ki

>  <pValue>
8.4

>  <Ligand Efficiency>
0

>  <Binding Efficiency>
0

>  <Surface Efficiency>
0

>  <Assay Index>
372491

>  <Assay Category>


>  <Assay Organism>


>  <Target ID>
56

>  <Target Name>
Androgen Receptor

>  <Target Organism>
Homo sapiens

>  <Target Description>
Target is a single protein chain

>  <Sequence Accession>
P10275

>  <Reference>
J Med Chem 52 (12), 3597-3617 (2009)

>  <Pubmed ID>
19432422

>  <DOI>
10.1021/jm900280m

$$$$
204142
Actelion Java MolfileCreator 1.0

 28 29  0  0  0  0  0  0  0  0999 V2000
    0.0000   -0.0000   -0.0000 F   0  0  0  0  0  0  0  0  0  0  0  0
   -0.0118    1.5062   -0.0000 C   0  0  0  0  0  0  0  0  0  0  0  0
    1.2709    2.2593   -0.0000 C   0  0  0  0  0  0  0  0  0  0  0  0
   -1.3179    2.2593   -0.0000 C   0  0  0  0  0  0  0  0  0  0  0  0
    1.2591    3.7655   -0.0000 C   0  0  0  0  0  0  0  0  0  0  0  0
   -1.3297    3.7655   -0.0000 C   0  0  0  0  0  0  0  0  0  0  0  0
   -0.0471    4.5186   -0.0000 C   0  0  0  0  0  0  0  0  0  0  0  0
   -0.0588    6.0248   -0.0000 O   0  0  0  0  0  0  0  0  0  0  0  0
   -1.3650    6.7779   -0.0000 C   0  0  0  0  0  0  0  0  0  0  0  0
   -1.3768    8.2842   -0.0000 C   0  0  0  0  0  0  0  0  0  0  0  0
    0.1059    8.2959   -0.0000 O   0  0  0  0  0  0  0  0  0  0  0  0
   -1.3885    9.7904   -0.0000 C   0  0  0  0  0  0  0  0  0  0  0  0
   -2.8830    8.2959   -0.0000 C   0  0  0  0  0  0  0  0  0  0  0  0
   -0.1059   10.5435   -0.0000 O   0  0  0  0  0  0  0  0  0  0  0  0
   -2.6947   10.5435   -0.0000 N   0  0  0  0  0  0  0  0  0  0  0  0
   -2.7065   12.0497   -0.0000 C   0  0  0  0  0  0  0  0  0  0  0  0
   -1.4238   12.8145   -0.0000 C   0  0  0  0  0  0  0  0  0  0  0  0
   -4.0126   12.8028   -0.0000 C   0  0  0  0  0  0  0  0  0  0  0  0
   -1.4356   14.3208   -0.0000 C   0  0  0  0  0  0  0  0  0  0  0  0
   -4.0244   14.3090   -0.0000 C   0  0  0  0  0  0  0  0  0  0  0  0
   -2.7418   15.0739   -0.0000 C   0  0  0  0  0  0  0  0  0  0  0  0
   -0.1530   15.0739   -0.0000 C   0  0  0  0  0  0  0  0  0  0  0  0
   -2.7535   16.5801   -0.0000 N   0  0  0  0  0  0  0  0  0  0  0  0
    1.1297   15.8270   -0.0000 F   0  0  0  0  0  0  0  0  0  0  0  0
   -0.9061   16.3800   -0.0000 F   0  0  0  0  0  0  0  0  0  0  0  0
    0.5766   13.7912   -0.0000 F   0  0  0  0  0  0  0  0  0  0  0  0
   -4.0597   17.3332   -0.0000 O   0  0  0  0  0  0  0  0  0  0  0  0
   -1.4709   17.3332   -0.0000 O   0  0  0  0  0  0  0  0  0  0  0  0
  1  2  1  0  0  0  0
  2  3  2  0  0  0  0
  2  4  1  0  0  0  0
  3  5  1  0  0  0  0
  4  6  2  0  0  0  0
  5  7  2  0  0  0  0
  7  8  1  0  0  0  0
  8  9  1  0  0  0  0
  9 10  1  0  0  0  0
 10 11  1  0  0  0  0
 10 12  1  1  0  0  0
 10 13  1  0  0  0  0
 12 14  2  0  0  0  0
 12 15  1  0  0  0  0
 15 16  1  0  0  0  0
 16 17  2  0  0  0  0
 16 18  1  0  0  0  0
 17 19  1  0  0  0  0
 18 20  2  0  0  0  0
 19 21  2  0  0  0  0
 19 22  1  0  0  0  0
 21 23  1  0  0  0  0
 22 24  1  0  0  0  0
 22 25  1  0  0  0  0
 22 26  1  0  0  0  0
 23 27  2  0  0  0  0
 23 28  1  0  0  0  0
  6  7  1  0  0  0  0
 20 21  1  0  0  0  0
M  CHG  2  23   1  28  -1
M  END
>  <MolRegNo>
204142

>  <m>
=

>  <Value>
6.1

>  <Unit>
nM

>  <Type>
Ki

>  <pValue>
8.21

>  <Ligand Efficiency>
0

>  <Binding Efficiency>
0

>  <Surface Efficiency>
0

>  <Assay Index>
372491

>  <Assay Category>


>  <Assay Organism>


>  <Target ID>
56

>  <Target Name>
Androgen Receptor

>  <Target Organism>
Homo sapiens

>  <Target Description>
Target is a single protein chain

>  <Sequence Accession>
P10275

>  <Reference>
J Med Chem 52 (12), 3597-3617 (2009)

>  <Pubmed ID>
19432422

>  <DOI>
10.1021/jm900280m

$$$$
479527
Actelion Java MolfileCreator 1.0

 28 29  0  0  1  0  0  0  0  0999 V2000
    0.0000   -0.0000   -0.0000 Cl  0  0  0  0  0  0  0  0  0  0  0  0
    1.1010   -0.6328   -0.0000 C   0  0  0  0  0  0  0  0  0  0  0  0
    1.0884   -2.2274   -0.0000 C   0  0  0  0  0  0  0  0  0  0  0  0
    2.4805    0.1772   -0.0000 C   0  0  0  0  0  0  0  0  0  0  0  0
   -0.0380   -2.8602   -0.0000 F   0  0  0  0  0  0  0  0  0  0  0  0
    2.4679   -3.0121   -0.0000 C   0  0  0  0  0  0  0  0  0  0  0  0
    3.8600   -0.6075   -0.0000 C   0  0  0  0  0  0  0  0  0  0  0  0
    3.8473   -2.2021   -0.0000 C   0  0  0  0  0  0  0  0  0  0  0  0
    5.2268   -2.9994   -0.0000 O   0  0  0  0  0  0  0  0  0  0  0  0
    5.2142   -4.5940   -0.0000 C   0  0  0  0  0  0  0  0  0  0  0  0
    6.5936   -5.3913   -0.0000 C   0  0  0  0  0  0  0  0  0  0  0  0
    5.4673   -6.0241   -0.0000 O   0  0  0  0  0  0  0  0  0  0  0  0
    6.5810   -6.9860   -0.0000 C   0  0  0  0  0  0  0  0  0  0  0  0
    7.6947   -4.7332   -0.0000 C   0  0  0  0  0  0  0  0  0  0  0  0
    5.4546   -7.6188   -0.0000 O   0  0  0  0  0  0  0  0  0  0  0  0
    7.9605   -7.7833   -0.0000 N   0  0  0  0  0  0  0  0  0  0  0  0
    7.9478   -9.3779   -0.0000 C   0  0  0  0  0  0  0  0  0  0  0  0
    6.5430  -10.1626   -0.0000 C   0  0  0  0  0  0  0  0  0  0  0  0
    9.3273  -10.1752   -0.0000 C   0  0  0  0  0  0  0  0  0  0  0  0
    6.5304  -11.7572   -0.0000 C   0  0  0  0  0  0  0  0  0  0  0  0
    9.3146  -11.7698   -0.0000 C   0  0  0  0  0  0  0  0  0  0  0  0
    7.9098  -12.5545   -0.0000 C   0  0  0  0  0  0  0  0  0  0  0  0
    5.1256  -12.5418   -0.0000 C   0  0  0  0  0  0  0  0  0  0  0  0
    7.8972  -14.1491   -0.0000 C   0  0  0  0  0  0  0  0  0  0  0  0
    5.1129  -13.8201   -0.0000 F   0  0  0  0  0  0  0  0  0  0  0  0
    3.9992  -11.8837   -0.0000 F   0  0  0  0  0  0  0  0  0  0  0  0
    3.9992  -13.1620   -0.0000 F   0  0  0  0  0  0  0  0  0  0  0  0
    7.8845  -15.4274   -0.0000 N   0  0  0  0  0  0  0  0  0  0  0  0
  1  2  1  0  0  0  0
  2  3  2  0  0  0  0
  2  4  1  0  0  0  0
  3  5  1  0  0  0  0
  3  6  1  0  0  0  0
  4  7  2  0  0  0  0
  6  8  2  0  0  0  0
  8  9  1  0  0  0  0
  9 10  1  0  0  0  0
 10 11  1  0  0  0  0
 11 12  1  6  0  0  0
 11 13  1  0  0  0  0
 11 14  1  0  0  0  0
 13 15  2  0  0  0  0
 13 16  1  0  0  0  0
 16 17  1  0  0  0  0
 17 18  2  0  0  0  0
 17 19  1  0  0  0  0
 18 20  1  0  0  0  0
 19 21  2  0  0  0  0
 20 22  2  0  0  0  0
 20 23  1  0  0  0  0
 22 24  1  0  0  0  0
 23 25  1  0  0  0  0
 23 26  1  0  0  0  0
 23 27  1  0  0  0  0
 24 28  3  0  0  0  0
  7  8  1  0  0  0  0
 21 22  1  0  0  0  0
M  END
>  <MolRegNo>
479527

>  <m>
=

>  <Value>
1.7

>  <Unit>
nM

>  <Type>
Ki

>  <pValue>
8.77

>  <Ligand Efficiency>
0

>  <Binding Efficiency>
0

>  <Surface Efficiency>
0

>  <Assay Index>
372491

>  <Assay Category>


>  <Assay Organism>


>  <Target ID>
56

>  <Target Name>
Androgen Receptor

>  <Target Organism>
Homo sapiens

>  <Target Description>
Target is a single protein chain

>  <Sequence Accession>
P10275

>  <Reference>
J Med Chem 52 (12), 3597-3617 (2009)

>  <Pubmed ID>
19432422

>  <DOI>
10.1021/jm900280m

$$$$
387234
Actelion Java MolfileCreator 1.0

 25 26  0  0  0  0  0  0  0  0999 V2000
    0.0000   -0.0000   -0.0000 F   0  0  0  0  0  0  0  0  0  0  0  0
    0.7555    1.2985   -0.0000 C   0  0  0  0  0  0  0  0  0  0  0  0
   -0.5430    2.0894   -0.0000 F   0  0  0  0  0  0  0  0  0  0  0  0
    2.0186    0.5312   -0.0000 F   0  0  0  0  0  0  0  0  0  0  0  0
    1.5346    2.5852   -0.0000 C   0  0  0  0  0  0  0  0  0  0  0  0
    0.8145    3.9309   -0.0000 C   0  0  0  0  0  0  0  0  0  0  0  0
    3.0220    2.5498   -0.0000 C   0  0  0  0  0  0  0  0  0  0  0  0
   -0.6965    3.9900   -0.0000 C   0  0  0  0  0  0  0  0  0  0  0  0
    1.6054    5.2176   -0.0000 C   0  0  0  0  0  0  0  0  0  0  0  0
    3.8011    3.8247   -0.0000 C   0  0  0  0  0  0  0  0  0  0  0  0
   -2.2075    4.0490   -0.0000 N   0  0  0  0  0  0  0  0  0  0  0  0
    3.0928    5.1704   -0.0000 C   0  0  0  0  0  0  0  0  0  0  0  0
    5.2885    3.7893   -0.0000 N   0  0  0  0  0  0  0  0  0  0  0  0
    6.0676    5.0760   -0.0000 C   0  0  0  0  0  0  0  0  0  0  0  0
    5.3475    6.4099   -0.0000 O   0  0  0  0  0  0  0  0  0  0  0  0
    7.5550    5.0406   -0.0000 C   0  0  0  0  0  0  0  0  0  0  0  0
    8.4757    6.2328   -0.0000 N   0  0  0  0  0  0  0  0  0  0  0  0
    8.3813    3.8011   -0.0000 C   0  0  0  0  0  0  0  0  0  0  0  0
    7.1418    6.5044   -0.0000 C   0  0  0  0  0  0  0  0  0  0  0  0
    9.8687    5.7371   -0.0000 N   0  0  0  0  0  0  0  0  0  0  0  0
    9.8097    4.2261   -0.0000 C   0  0  0  0  0  0  0  0  0  0  0  0
   10.9783    3.3171   -0.0000 C   0  0  0  0  0  0  0  0  0  0  0  0
   12.2532    2.5852   -0.0000 F   0  0  0  0  0  0  0  0  0  0  0  0
   10.1284    2.0894   -0.0000 F   0  0  0  0  0  0  0  0  0  0  0  0
   11.8164    4.5684   -0.0000 F   0  0  0  0  0  0  0  0  0  0  0  0
  1  2  1  0  0  0  0
  2  3  1  0  0  0  0
  2  4  1  0  0  0  0
  2  5  1  0  0  0  0
  5  6  2  0  0  0  0
  5  7  1  0  0  0  0
  6  8  1  0  0  0  0
  6  9  1  0  0  0  0
  7 10  2  0  0  0  0
  8 11  3  0  0  0  0
  9 12  2  0  0  0  0
 10 13  1  0  0  0  0
 13 14  1  0  0  0  0
 14 15  2  0  0  0  0
 14 16  1  0  0  0  0
 16 17  1  0  0  0  0
 16 18  1  0  0  0  0
 16 19  1  6  0  0  0
 17 20  1  0  0  0  0
 18 21  1  0  0  0  0
 21 22  1  0  0  0  0
 22 23  1  0  0  0  0
 22 24  1  0  0  0  0
 22 25  1  0  0  0  0
 10 12  1  0  0  0  0
 20 21  2  0  0  0  0
M  END
>  <MolRegNo>
387234

>  <m>
=

>  <Value>
630

>  <Unit>
nM

>  <Type>
Ki

>  <pValue>
6.2

>  <Ligand Efficiency>
0

>  <Binding Efficiency>
0

>  <Surface Efficiency>
0

>  <Assay Index>
372491

>  <Assay Category>


>  <Assay Organism>


>  <Target ID>
56

>  <Target Name>
Androgen Receptor

>  <Target Organism>
Homo sapiens

>  <Target Description>
Target is a single protein chain

>  <Sequence Accession>
P10275

>  <Reference>
J Med Chem 52 (12), 3597-3617 (2009)

>  <Pubmed ID>
19432422

>  <DOI>
10.1021/jm900280m

$$$$
1594416
Actelion Java MolfileCreator 1.0

 21 24  0  0  1  0  0  0  0  0999 V2000
    0.0000   -0.0000   -0.0000 O   0  0  0  0  0  0  0  0  0  0  0  0
   -1.2996    0.7747   -0.0000 C   0  0  0  0  0  0  0  0  0  0  0  0
   -2.5117    1.0122   -0.0000 C   0  0  0  0  0  0  0  0  0  0  0  0
   -2.2493    1.9619   -0.0000 C   0  0  0  0  0  0  0  0  0  0  0  0
   -4.0612    0.1624   -0.0000 C   0  0  0  0  0  0  0  0  0  0  0  0
   -3.7238    1.1246   -0.0000 C   0  0  0  0  0  0  0  0  0  0  0  0
   -5.0109    1.3371   -0.0000 N   0  0  0  0  0  0  0  0  0  0  0  0
   -4.2611   -1.4120   -0.0000 C   0  0  0  0  0  0  0  0  0  0  0  0
   -3.6113   -0.2624   -0.0000 C   0  0  0  0  0  0  0  0  0  0  0  0
   -6.3229    2.0993   -0.0000 C   0  0  0  0  0  0  0  0  0  0  0  0
   -6.3354    3.6113   -0.0000 C   0  0  0  0  0  0  0  0  0  0  0  0
   -7.6350    1.3621   -0.0000 C   0  0  0  0  0  0  0  0  0  0  0  0
   -7.6475    4.3736   -0.0000 C   0  0  0  0  0  0  0  0  0  0  0  0
   -5.0484    4.3736   -0.0000 C   0  0  0  0  0  0  0  0  0  0  0  0
   -8.9471    2.1243   -0.0000 C   0  0  0  0  0  0  0  0  0  0  0  0
   -8.9596    3.6363   -0.0000 C   0  0  0  0  0  0  0  0  0  0  0  0
   -7.6600    5.8856   -0.0000 C   0  0  0  0  0  0  0  0  0  0  0  0
   -5.0609    5.8856   -0.0000 C   0  0  0  0  0  0  0  0  0  0  0  0
  -10.2717    4.3986   -0.0000 C   0  0  0  0  0  0  0  0  0  0  0  0
   -6.3729    6.6478   -0.0000 C   0  0  0  0  0  0  0  0  0  0  0  0
  -11.5837    5.1608   -0.0000 N   0  0  0  0  0  0  0  0  0  0  0  0
  2  1  1  6  0  0  0
  2  3  1  0  0  0  0
  2  4  1  0  0  0  0
  3  5  1  0  0  0  0
  4  6  1  0  0  0  0
  5  7  1  6  0  0  0
  5  8  1  0  0  0  0
  6  9  1  0  0  0  0
  7 10  1  0  0  0  0
 10 11  1  0  0  0  0
 10 12  2  0  0  0  0
 11 13  1  0  0  0  0
 11 14  2  0  0  0  0
 12 15  1  0  0  0  0
 13 16  1  0  0  0  0
 13 17  2  0  0  0  0
 14 18  1  0  0  0  0
 16 19  1  0  0  0  0
 17 20  1  0  0  0  0
 19 21  3  0  0  0  0
  6  7  1  1  0  0  0
  8  9  1  0  0  0  0
 15 16  2  0  0  0  0
 18 20  2  0  0  0  0
M  END
>  <MolRegNo>
1594416

>  <m>
=

>  <Value>
5

>  <Unit>
nM

>  <Type>
Ki

>  <pValue>
8.3

>  <Ligand Efficiency>
0

>  <Binding Efficiency>
0

>  <Surface Efficiency>
0

>  <Assay Index>
372491

>  <Assay Category>


>  <Assay Organism>


>  <Target ID>
56

>  <Target Name>
Androgen Receptor

>  <Target Organism>
Homo sapiens

>  <Target Description>
Target is a single protein chain

>  <Sequence Accession>
P10275

>  <Reference>
J Med Chem 52 (12), 3597-3617 (2009)

>  <Pubmed ID>
19432422

>  <DOI>
10.1021/jm900280m

$$$$
479590
Actelion Java MolfileCreator 1.0

 21 22  0  0  0  0  0  0  0  0999 V2000
    0.0000   -0.0000   -0.0000 O   0  0  0  0  0  0  0  0  0  0  0  0
    1.2916    0.7654   -0.0000 N   0  0  0  0  0  0  0  0  0  0  0  0
    1.2796    2.2842   -0.0000 O   0  0  0  0  0  0  0  0  0  0  0  0
    2.5832    0.0239   -0.0000 C   0  0  0  0  0  0  0  0  0  0  0  0
    3.8628    0.7893   -0.0000 C   0  0  0  0  0  0  0  0  0  0  0  0
    2.5712   -1.4710   -0.0000 C   0  0  0  0  0  0  0  0  0  0  0  0
    5.1544    0.0598   -0.0000 C   0  0  0  0  0  0  0  0  0  0  0  0
    3.8628   -2.2125   -0.0000 C   0  0  0  0  0  0  0  0  0  0  0  0
    5.1425   -1.4471   -0.0000 C   0  0  0  0  0  0  0  0  0  0  0  0
    6.4460    0.8371   -0.0000 C   0  0  0  0  0  0  0  0  0  0  0  0
    6.4341   -2.1885   -0.0000 N   0  0  0  0  0  0  0  0  0  0  0  0
    6.4341    2.3560   -0.0000 N   0  0  0  0  0  0  0  0  0  0  0  0
    7.7496    0.0837   -0.0000 C   0  0  0  0  0  0  0  0  0  0  0  0
    7.7376   -1.4232   -0.0000 C   0  0  0  0  0  0  0  0  0  0  0  0
    7.7257    3.1214   -0.0000 C   0  0  0  0  0  0  0  0  0  0  0  0
    5.1186    3.1214   -0.0000 C   0  0  0  0  0  0  0  0  0  0  0  0
    9.0292   -2.1646   -0.0000 C   0  0  0  0  0  0  0  0  0  0  0  0
   10.3089   -2.8941   -0.0000 C   0  0  0  0  0  0  0  0  0  0  0  0
    8.2638   -3.4562   -0.0000 C   0  0  0  0  0  0  0  0  0  0  0  0
    9.7827   -0.8611   -0.0000 C   0  0  0  0  0  0  0  0  0  0  0  0
   11.6005   -2.1287   -0.0000 O   0  0  0  0  0  0  0  0  0  0  0  0
  1  2  2  0  0  0  0
  2  3  1  0  0  0  0
  2  4  1  0  0  0  0
  4  5  2  0  0  0  0
  4  6  1  0  0  0  0
  5  7  1  0  0  0  0
  6  8  2  0  0  0  0
  7  9  2  0  0  0  0
  7 10  1  0  0  0  0
  9 11  1  0  0  0  0
 10 12  1  0  0  0  0
 10 13  1  0  0  0  0
 11 14  1  0  0  0  0
 12 15  1  0  0  0  0
 12 16  1  0  0  0  0
 14 17  1  0  0  0  0
 17 18  1  0  0  0  0
 17 19  1  0  0  0  0
 17 20  1  0  0  0  0
 18 21  1  0  0  0  0
  8  9  1  0  0  0  0
 13 14  1  0  0  0  0
M  CHG  2   2   1   3  -1
M  END
>  <MolRegNo>
479590

>  <m>
=

>  <Value>
14.9

>  <Unit>
nM

>  <Type>
Ki

>  <pValue>
7.83

>  <Ligand Efficiency>
0

>  <Binding Efficiency>
0

>  <Surface Efficiency>
0

>  <Assay Index>
372491

>  <Assay Category>


>  <Assay Organism>


>  <Target ID>
56

>  <Target Name>
Androgen Receptor

>  <Target Organism>
Homo sapiens

>  <Target Description>
Target is a single protein chain

>  <Sequence Accession>
P10275

>  <Reference>
J Med Chem 52 (12), 3597-3617 (2009)

>  <Pubmed ID>
19432422

>  <DOI>
10.1021/jm900280m

$$$$
479589
Actelion Java MolfileCreator 1.0

 19 20  0  0  0  0  0  0  0  0999 V2000
    0.0000   -0.0000   -0.0000 Cl  0  0  0  0  0  0  0  0  0  0  0  0
    1.2968   -0.7376   -0.0000 C   0  0  0  0  0  0  0  0  0  0  0  0
    1.2849   -2.2367   -0.0000 C   0  0  0  0  0  0  0  0  0  0  0  0
    2.5818    0.0238   -0.0000 C   0  0  0  0  0  0  0  0  0  0  0  0
   -0.0357   -2.9744   -0.0000 Cl  0  0  0  0  0  0  0  0  0  0  0  0
    2.5699   -2.9744   -0.0000 C   0  0  0  0  0  0  0  0  0  0  0  0
    3.8786   -0.7138   -0.0000 C   0  0  0  0  0  0  0  0  0  0  0  0
    3.8667   -2.2010   -0.0000 C   0  0  0  0  0  0  0  0  0  0  0  0
    5.3063   -0.2379   -0.0000 N   0  0  0  0  0  0  0  0  0  0  0  0
    5.2944   -2.6531   -0.0000 N   0  0  0  0  0  0  0  0  0  0  0  0
    6.1867   -1.4515   -0.0000 C   0  0  0  0  0  0  0  0  0  0  0  0
    7.6858   -1.4396   -0.0000 C   0  0  0  0  0  0  0  0  0  0  0  0
    9.1729   -1.4277   -0.0000 O   0  0  0  0  0  0  0  0  0  0  0  0
    7.6739    0.0833   -0.0000 C   0  0  0  0  0  0  0  0  0  0  0  0
    7.6858   -2.9387   -0.0000 C   0  0  0  0  0  0  0  0  0  0  0  0
    8.9707    0.8447   -0.0000 C   0  0  0  0  0  0  0  0  0  0  0  0
    7.6620   -4.4378   -0.0000 F   0  0  0  0  0  0  0  0  0  0  0  0
    9.1848   -2.9268   -0.0000 F   0  0  0  0  0  0  0  0  0  0  0  0
    6.1629   -2.9268   -0.0000 F   0  0  0  0  0  0  0  0  0  0  0  0
  1  2  1  0  0  0  0
  2  3  2  0  0  0  0
  2  4  1  0  0  0  0
  3  5  1  0  0  0  0
  3  6  1  0  0  0  0
  4  7  2  0  0  0  0
  6  8  2  0  0  0  0
  7  9  1  0  0  0  0
  8 10  1  0  0  0  0
  9 11  2  0  0  0  0
 12 11  1  6  0  0  0
 12 13  1  0  0  0  0
 12 14  1  0  0  0  0
 12 15  1  0  0  0  0
 14 16  2  0  0  0  0
 15 17  1  0  0  0  0
 15 18  1  0  0  0  0
 15 19  1  0  0  0  0
  7  8  1  0  0  0  0
 10 11  1  0  0  0  0
M  END
>  <MolRegNo>
479589

>  <m>
=

>  <Value>
1.1

>  <Unit>
nM

>  <Type>
Ki

>  <pValue>
8.96

>  <Ligand Efficiency>
0

>  <Binding Efficiency>
0

>  <Surface Efficiency>
0

>  <Assay Index>
372491

>  <Assay Category>


>  <Assay Organism>


>  <Target ID>
56

>  <Target Name>
Androgen Receptor

>  <Target Organism>
Homo sapiens

>  <Target Description>
Target is a single protein chain

>  <Sequence Accession>
P10275

>  <Reference>
J Med Chem 52 (12), 3597-3617 (2009)

>  <Pubmed ID>
19432422

>  <DOI>
10.1021/jm900280m

$$$$
470142
Actelion Java MolfileCreator 1.0

 35 39  0  0  0  0  0  0  0  0999 V2000
    0.0000   -0.0000   -0.0000 N   0  0  0  0  0  0  0  0  0  0  0  0
   -0.0119   -1.5012   -0.0000 C   0  0  0  0  0  0  0  0  0  0  0  0
   -1.3106    0.7625   -0.0000 C   0  0  0  0  0  0  0  0  0  0  0  0
   -1.3344   -2.2399   -0.0000 N   0  0  0  0  0  0  0  0  0  0  0  0
    1.2748   -2.2399   -0.0000 N   0  0  0  0  0  0  0  0  0  0  0  0
   -1.3225    2.2757   -0.0000 N   0  0  0  0  0  0  0  0  0  0  0  0
   -2.6212    0.0238   -0.0000 C   0  0  0  0  0  0  0  0  0  0  0  0
   -2.6450   -1.4774   -0.0000 C   0  0  0  0  0  0  0  0  0  0  0  0
    2.5616   -1.4774   -0.0000 C   0  0  0  0  0  0  0  0  0  0  0  0
   -0.0357    3.0382   -0.0000 C   0  0  0  0  0  0  0  0  0  0  0  0
   -3.9556   -2.2161   -0.0000 C   0  0  0  0  0  0  0  0  0  0  0  0
    3.8484   -2.2161   -0.0000 C   0  0  0  0  0  0  0  0  0  0  0  0
    1.2510    2.2995   -0.0000 C   0  0  0  0  0  0  0  0  0  0  0  0
   -5.2662   -1.4536   -0.0000 C   0  0  0  0  0  0  0  0  0  0  0  0
    5.1232   -1.4416   -0.0000 C   0  0  0  0  0  0  0  0  0  0  0  0
    3.8245   -3.7054   -0.0000 C   0  0  0  0  0  0  0  0  0  0  0  0
    2.5378    3.0620   -0.0000 C   0  0  0  0  0  0  0  0  0  0  0  0
    1.2391    0.8102   -0.0000 C   0  0  0  0  0  0  0  0  0  0  0  0
   -6.5768   -2.1923   -0.0000 C   0  0  0  0  0  0  0  0  0  0  0  0
    6.4100   -2.1684   -0.0000 C   0  0  0  0  0  0  0  0  0  0  0  0
    5.0994    0.0596   -0.0000 C   0  0  0  0  0  0  0  0  0  0  0  0
    5.1113   -4.4441   -0.0000 C   0  0  0  0  0  0  0  0  0  0  0  0
   -7.8993   -1.4297   -0.0000 C   0  0  0  0  0  0  0  0  0  0  0  0
   -6.5887   -3.6816   -0.0000 C   0  0  0  0  0  0  0  0  0  0  0  0
    6.4100   -3.6697   -0.0000 C   0  0  0  0  0  0  0  0  0  0  0  0
    7.6848   -1.4059   -0.0000 C   0  0  0  0  0  0  0  0  0  0  0  0
    6.3742    0.8340   -0.0000 C   0  0  0  0  0  0  0  0  0  0  0  0
   -9.2099   -2.1565   -0.0000 C   0  0  0  0  0  0  0  0  0  0  0  0
   -7.9112    0.0715   -0.0000 C   0  0  0  0  0  0  0  0  0  0  0  0
   -7.8993   -4.4203   -0.0000 C   0  0  0  0  0  0  0  0  0  0  0  0
    7.6610    0.1072   -0.0000 C   0  0  0  0  0  0  0  0  0  0  0  0
   -9.2218   -3.6458   -0.0000 C   0  0  0  0  0  0  0  0  0  0  0  0
  -10.5085   -1.4059   -0.0000 C   0  0  0  0  0  0  0  0  0  0  0  0
   -9.2099    0.8340   -0.0000 C   0  0  0  0  0  0  0  0  0  0  0  0
  -10.5205    0.0953   -0.0000 C   0  0  0  0  0  0  0  0  0  0  0  0
  1  2  2  0  0  0  0
  1  3  1  0  0  0  0
  2  4  1  0  0  0  0
  2  5  1  0  0  0  0
  3  6  1  0  0  0  0
  3  7  2  0  0  0  0
  4  8  2  0  0  0  0
  5  9  1  0  0  0  0
  6 10  1  0  0  0  0
  8 11  1  0  0  0  0
  9 12  1  0  0  0  0
 10 13  1  0  0  0  0
 11 14  1  0  0  0  0
 12 15  1  0  0  0  0
 12 16  2  0  0  0  0
 13 17  1  0  0  0  0
 13 18  1  0  0  0  0
 14 19  1  0  0  0  0
 15 20  1  0  0  0  0
 15 21  2  0  0  0  0
 16 22  1  0  0  0  0
 19 23  1  0  0  0  0
 19 24  2  0  0  0  0
 20 25  1  0  0  0  0
 20 26  2  0  0  0  0
 21 27  1  0  0  0  0
 23 28  1  0  0  0  0
 23 29  2  0  0  0  0
 24 30  1  0  0  0  0
 26 31  1  0  0  0  0
 28 32  1  0  0  0  0
 28 33  2  0  0  0  0
 29 34  1  0  0  0  0
 33 35  1  0  0  0  0
  7  8  1  0  0  0  0
 22 25  2  0  0  0  0
 27 31  2  0  0  0  0
 30 32  2  0  0  0  0
 34 35  2  0  0  0  0
M  END
>  <MolRegNo>
470142

>  <m>
=

>  <Value>
1500

>  <Unit>
nM

>  <Type>
Ki

>  <pValue>
5.82

>  <Ligand Efficiency>
0.23

>  <Binding Efficiency>
12.64

>  <Surface Efficiency>
11.69

>  <Assay Index>
462231

>  <Assay Category>


>  <Assay Organism>


>  <Target ID>
56

>  <Target Name>
Androgen Receptor

>  <Target Organism>
Homo sapiens

>  <Target Description>
Target is a single protein chain

>  <Sequence Accession>
P10275

>  <Reference>
Bioorg Med Chem Lett 20 (5), 1712-1717 (2010)

>  <Pubmed ID>
20144545

>  <DOI>
10.1016/j.bmcl.2010.01.079

$$$$
645127
Actelion Java MolfileCreator 1.0

 26 28  0  0  0  0  0  0  0  0999 V2000
    0.0000   -0.0000   -0.0000 S   0  0  0  0  0  0  0  0  0  0  0  0
    0.4522   -1.4161   -0.0000 C   0  0  0  0  0  0  0  0  0  0  0  0
   -1.5113    0.0119   -0.0000 C   0  0  0  0  0  0  0  0  0  0  0  0
   -0.7735   -2.2967   -0.0000 C   0  0  0  0  0  0  0  0  0  0  0  0
   -1.9873   -1.4042   -0.0000 C   0  0  0  0  0  0  0  0  0  0  0  0
   -0.7854   -3.7842   -0.0000 C   0  0  0  0  0  0  0  0  0  0  0  0
    0.4998   -4.5220   -0.0000 N   0  0  0  0  0  0  0  0  0  0  0  0
   -2.0944   -4.5220   -0.0000 C   0  0  0  0  0  0  0  0  0  0  0  0
    1.9873   -4.4506   -0.0000 C   0  0  0  0  0  0  0  0  0  0  0  0
   -3.4034   -3.7604   -0.0000 C   0  0  0  0  0  0  0  0  0  0  0  0
    2.7727   -5.7120   -0.0000 C   0  0  0  0  0  0  0  0  0  0  0  0
    2.6656   -3.1059   -0.0000 C   0  0  0  0  0  0  0  0  0  0  0  0
   -3.4153   -2.2491   -0.0000 O   0  0  0  0  0  0  0  0  0  0  0  0
   -4.7124   -4.4982   -0.0000 C   0  0  0  0  0  0  0  0  0  0  0  0
    4.2602   -5.6406   -0.0000 C   0  0  0  0  0  0  0  0  0  0  0  0
    4.1531   -3.0345   -0.0000 C   0  0  0  0  0  0  0  0  0  0  0  0
   -6.0214   -3.7366   -0.0000 C   0  0  0  0  0  0  0  0  0  0  0  0
   -4.7243   -5.9976   -0.0000 C   0  0  0  0  0  0  0  0  0  0  0  0
    4.9504   -4.2959   -0.0000 C   0  0  0  0  0  0  0  0  0  0  0  0
   -7.3304   -4.4744   -0.0000 C   0  0  0  0  0  0  0  0  0  0  0  0
   -6.0452   -6.7354   -0.0000 C   0  0  0  0  0  0  0  0  0  0  0  0
    6.4379   -4.2245   -0.0000 N   0  0  0  0  0  0  0  0  0  0  0  0
   -7.3423   -5.9738   -0.0000 C   0  0  0  0  0  0  0  0  0  0  0  0
    7.1281   -2.8798   -0.0000 O   0  0  0  0  0  0  0  0  0  0  0  0
    7.2352   -5.4859   -0.0000 O   0  0  0  0  0  0  0  0  0  0  0  0
   -8.6513   -6.7116   -0.0000 C   0  0  0  0  0  0  0  0  0  0  0  0
  1  2  1  0  0  0  0
  1  3  1  0  0  0  0
  2  4  2  0  0  0  0
  3  5  2  0  0  0  0
  4  6  1  0  0  0  0
  6  7  1  0  0  0  0
  6  8  1  0  0  0  0
  7  9  1  0  0  0  0
  8 10  1  0  0  0  0
  9 11  2  0  0  0  0
  9 12  1  0  0  0  0
 10 13  2  0  0  0  0
 10 14  1  0  0  0  0
 11 15  1  0  0  0  0
 12 16  2  0  0  0  0
 14 17  2  0  0  0  0
 14 18  1  0  0  0  0
 15 19  2  0  0  0  0
 17 20  1  0  0  0  0
 18 21  2  0  0  0  0
 19 22  1  0  0  0  0
 20 23  2  0  0  0  0
 22 24  2  0  0  0  0
 22 25  1  0  0  0  0
 23 26  1  0  0  0  0
  4  5  1  0  0  0  0
 16 19  1  0  0  0  0
 21 23  1  0  0  0  0
M  CHG  2  22   1  25  -1
M  END
>  <MolRegNo>
645127

>  <m>
=

>  <Value>
10.4

>  <Unit>
nM

>  <Type>
Ki

>  <pValue>
7.98

>  <Ligand Efficiency>
0.42

>  <Binding Efficiency>
21.79

>  <Surface Efficiency>
11.05

>  <Assay Index>
482945

>  <Assay Category>


>  <Assay Organism>
Homo sapiens

>  <Target ID>
56

>  <Target Name>
Androgen Receptor

>  <Target Organism>
Homo sapiens

>  <Target Description>
Target is a single protein chain

>  <Sequence Accession>
P10275

>  <Reference>
Bioorg Med Chem 18 (12), 4255-4268 (2010)

>  <Pubmed ID>
20510622

>  <DOI>
10.1016/j.bmc.2010.04.092

$$$$
645128
Actelion Java MolfileCreator 1.0

 27 29  0  0  0  0  0  0  0  0999 V2000
    0.0000   -0.0000   -0.0000 S   0  0  0  0  0  0  0  0  0  0  0  0
    0.4521   -1.4157   -0.0000 C   0  0  0  0  0  0  0  0  0  0  0  0
   -1.5108    0.0119   -0.0000 C   0  0  0  0  0  0  0  0  0  0  0  0
   -0.7733   -2.2960   -0.0000 C   0  0  0  0  0  0  0  0  0  0  0  0
   -1.9867   -1.4038   -0.0000 C   0  0  0  0  0  0  0  0  0  0  0  0
   -0.7852   -3.7830   -0.0000 C   0  0  0  0  0  0  0  0  0  0  0  0
    0.4996   -4.5206   -0.0000 N   0  0  0  0  0  0  0  0  0  0  0  0
   -2.0937   -4.5206   -0.0000 C   0  0  0  0  0  0  0  0  0  0  0  0
    1.9867   -4.4492   -0.0000 C   0  0  0  0  0  0  0  0  0  0  0  0
   -3.4023   -3.7592   -0.0000 C   0  0  0  0  0  0  0  0  0  0  0  0
    2.7718   -5.7102   -0.0000 C   0  0  0  0  0  0  0  0  0  0  0  0
    2.6648   -3.1049   -0.0000 C   0  0  0  0  0  0  0  0  0  0  0  0
   -3.4142   -2.2484   -0.0000 O   0  0  0  0  0  0  0  0  0  0  0  0
   -4.7109   -4.4968   -0.0000 C   0  0  0  0  0  0  0  0  0  0  0  0
    4.2589   -5.6388   -0.0000 C   0  0  0  0  0  0  0  0  0  0  0  0
    4.1518   -3.0336   -0.0000 C   0  0  0  0  0  0  0  0  0  0  0  0
   -4.7228   -5.9957   -0.0000 C   0  0  0  0  0  0  0  0  0  0  0  0
   -6.0195   -3.7354   -0.0000 C   0  0  0  0  0  0  0  0  0  0  0  0
    4.9489   -4.2946   -0.0000 C   0  0  0  0  0  0  0  0  0  0  0  0
   -6.0433   -6.7333   -0.0000 C   0  0  0  0  0  0  0  0  0  0  0  0
   -7.3281   -4.4730   -0.0000 C   0  0  0  0  0  0  0  0  0  0  0  0
    6.4359   -4.2232   -0.0000 N   0  0  0  0  0  0  0  0  0  0  0  0
   -7.3519   -5.9719   -0.0000 C   0  0  0  0  0  0  0  0  0  0  0  0
    7.1259   -2.8789   -0.0000 O   0  0  0  0  0  0  0  0  0  0  0  0
    7.2329   -5.4723   -0.0000 O   0  0  0  0  0  0  0  0  0  0  0  0
   -8.6605   -6.7095   -0.0000 C   0  0  0  0  0  0  0  0  0  0  0  0
   -9.9810   -7.4471   -0.0000 N   0  0  0  0  0  0  0  0  0  0  0  0
  1  2  1  0  0  0  0
  1  3  1  0  0  0  0
  2  4  2  0  0  0  0
  3  5  2  0  0  0  0
  4  6  1  0  0  0  0
  6  7  1  0  0  0  0
  6  8  1  0  0  0  0
  7  9  1  0  0  0  0
  8 10  1  0  0  0  0
  9 11  2  0  0  0  0
  9 12  1  0  0  0  0
 10 13  2  0  0  0  0
 10 14  1  0  0  0  0
 11 15  1  0  0  0  0
 12 16  2  0  0  0  0
 14 17  2  0  0  0  0
 14 18  1  0  0  0  0
 15 19  2  0  0  0  0
 17 20  1  0  0  0  0
 18 21  2  0  0  0  0
 19 22  1  0  0  0  0
 20 23  2  0  0  0  0
 22 24  2  0  0  0  0
 22 25  1  0  0  0  0
 23 26  1  0  0  0  0
 26 27  3  0  0  0  0
  4  5  1  0  0  0  0
 16 19  1  0  0  0  0
 21 23  1  0  0  0  0
M  CHG  2  22   1  25  -1
M  END
>  <MolRegNo>
645128

>  <m>
=

>  <Value>
2.3

>  <Unit>
nM

>  <Type>
Ki

>  <pValue>
8.64

>  <Ligand Efficiency>
0.44

>  <Binding Efficiency>
22.89

>  <Surface Efficiency>
9

>  <Assay Index>
482945

>  <Assay Category>


>  <Assay Organism>
Homo sapiens

>  <Target ID>
56

>  <Target Name>
Androgen Receptor

>  <Target Organism>
Homo sapiens

>  <Target Description>
Target is a single protein chain

>  <Sequence Accession>
P10275

>  <Reference>
Bioorg Med Chem 18 (12), 4255-4268 (2010)

>  <Pubmed ID>
20510622

>  <DOI>
10.1016/j.bmc.2010.04.092

$$$$
645129
Actelion Java MolfileCreator 1.0

 27 29  0  0  0  0  0  0  0  0999 V2000
    0.0000   -0.0000   -0.0000 O   0  0  0  0  0  0  0  0  0  0  0  0
   -0.7105   -1.3144   -0.0000 N   0  0  0  0  0  0  0  0  0  0  0  0
    0.0829   -2.5577   -0.0000 O   0  0  0  0  0  0  0  0  0  0  0  0
   -2.2143   -1.3617   -0.0000 C   0  0  0  0  0  0  0  0  0  0  0  0
   -2.9248   -2.6761   -0.0000 C   0  0  0  0  0  0  0  0  0  0  0  0
   -3.0314   -0.0829   -0.0000 C   0  0  0  0  0  0  0  0  0  0  0  0
   -4.4286   -2.7235   -0.0000 C   0  0  0  0  0  0  0  0  0  0  0  0
   -4.5352   -0.1303   -0.0000 C   0  0  0  0  0  0  0  0  0  0  0  0
   -5.2339   -1.4446   -0.0000 C   0  0  0  0  0  0  0  0  0  0  0  0
   -6.7377   -1.4920   -0.0000 N   0  0  0  0  0  0  0  0  0  0  0  0
   -8.0402   -0.7342   -0.0000 C   0  0  0  0  0  0  0  0  0  0  0  0
   -8.0521    0.7697   -0.0000 C   0  0  0  0  0  0  0  0  0  0  0  0
   -9.3428   -1.4683   -0.0000 C   0  0  0  0  0  0  0  0  0  0  0  0
   -6.7732    1.5275   -0.0000 C   0  0  0  0  0  0  0  0  0  0  0  0
   -9.3546    1.5157   -0.0000 C   0  0  0  0  0  0  0  0  0  0  0  0
  -10.6453   -0.7105   -0.0000 C   0  0  0  0  0  0  0  0  0  0  0  0
   -6.7851    3.0314   -0.0000 C   0  0  0  0  0  0  0  0  0  0  0  0
   -9.3783    3.0195   -0.0000 C   0  0  0  0  0  0  0  0  0  0  0  0
  -10.6572    0.7934   -0.0000 O   0  0  0  0  0  0  0  0  0  0  0  0
  -11.9479   -1.4446   -0.0000 C   0  0  0  0  0  0  0  0  0  0  0  0
   -8.0994    3.7892   -0.0000 C   0  0  0  0  0  0  0  0  0  0  0  0
  -13.2504   -0.6868   -0.0000 C   0  0  0  0  0  0  0  0  0  0  0  0
  -11.9597   -2.9366   -0.0000 C   0  0  0  0  0  0  0  0  0  0  0  0
  -14.5530   -1.4210   -0.0000 C   0  0  0  0  0  0  0  0  0  0  0  0
  -13.2741   -3.6708   -0.0000 C   0  0  0  0  0  0  0  0  0  0  0  0
  -14.5648   -2.9130   -0.0000 C   0  0  0  0  0  0  0  0  0  0  0  0
  -15.8673   -3.6471   -0.0000 C   0  0  0  0  0  0  0  0  0  0  0  0
  1  2  2  0  0  0  0
  2  3  1  0  0  0  0
  2  4  1  0  0  0  0
  4  5  2  0  0  0  0
  4  6  1  0  0  0  0
  5  7  1  0  0  0  0
  6  8  2  0  0  0  0
  7  9  2  0  0  0  0
  9 10  1  0  0  0  0
 10 11  1  0  0  0  0
 11 12  1  0  0  0  0
 11 13  1  0  0  0  0
 12 14  2  0  0  0  0
 12 15  1  0  0  0  0
 13 16  1  0  0  0  0
 14 17  1  0  0  0  0
 15 18  2  0  0  0  0
 16 19  2  0  0  0  0
 16 20  1  0  0  0  0
 17 21  2  0  0  0  0
 20 22  2  0  0  0  0
 20 23  1  0  0  0  0
 22 24  1  0  0  0  0
 23 25  2  0  0  0  0
 24 26  2  0  0  0  0
 26 27  1  0  0  0  0
  8  9  1  0  0  0  0
 18 21  1  0  0  0  0
 25 26  1  0  0  0  0
M  CHG  2   2   1   3  -1
M  END
>  <MolRegNo>
645129

>  <m>
=

>  <Value>
18

>  <Unit>
nM

>  <Type>
Ki

>  <pValue>
7.75

>  <Ligand Efficiency>
0.39

>  <Binding Efficiency>
21.49

>  <Surface Efficiency>
10.72

>  <Assay Index>
482945

>  <Assay Category>


>  <Assay Organism>
Homo sapiens

>  <Target ID>
56

>  <Target Name>
Androgen Receptor

>  <Target Organism>
Homo sapiens

>  <Target Description>
Target is a single protein chain

>  <Sequence Accession>
P10275

>  <Reference>
Bioorg Med Chem 18 (12), 4255-4268 (2010)

>  <Pubmed ID>
20510622

>  <DOI>
10.1016/j.bmc.2010.04.092

$$$$
645130
Actelion Java MolfileCreator 1.0

 26 28  0  0  0  0  0  0  0  0999 V2000
    0.0000   -0.0000   -0.0000 O   0  0  0  0  0  0  0  0  0  0  0  0
   -0.0119   -1.4872   -0.0000 C   0  0  0  0  0  0  0  0  0  0  0  0
   -1.3206   -2.2248   -0.0000 C   0  0  0  0  0  0  0  0  0  0  0  0
    1.2730   -2.2248   -0.0000 C   0  0  0  0  0  0  0  0  0  0  0  0
   -2.6293   -1.4634   -0.0000 C   0  0  0  0  0  0  0  0  0  0  0  0
   -1.3325   -3.7239   -0.0000 C   0  0  0  0  0  0  0  0  0  0  0  0
    2.5580   -1.4634   -0.0000 C   0  0  0  0  0  0  0  0  0  0  0  0
   -3.9381   -2.2010   -0.0000 C   0  0  0  0  0  0  0  0  0  0  0  0
   -2.6531   -4.4615   -0.0000 C   0  0  0  0  0  0  0  0  0  0  0  0
    3.8429   -2.2010   -0.0000 N   0  0  0  0  0  0  0  0  0  0  0  0
    2.5461    0.0476   -0.0000 C   0  0  0  0  0  0  0  0  0  0  0  0
   -3.9500   -3.7001   -0.0000 C   0  0  0  0  0  0  0  0  0  0  0  0
    5.3301   -2.1296   -0.0000 C   0  0  0  0  0  0  0  0  0  0  0  0
    3.8310    0.8090   -0.0000 C   0  0  0  0  0  0  0  0  0  0  0  0
    1.2373    0.7971   -0.0000 C   0  0  0  0  0  0  0  0  0  0  0  0
   -5.2587   -4.4377   -0.0000 C   0  0  0  0  0  0  0  0  0  0  0  0
    6.1153   -3.3908   -0.0000 C   0  0  0  0  0  0  0  0  0  0  0  0
    6.0082   -0.7852   -0.0000 C   0  0  0  0  0  0  0  0  0  0  0  0
    3.8191    2.3200   -0.0000 C   0  0  0  0  0  0  0  0  0  0  0  0
    1.2135    2.3081   -0.0000 C   0  0  0  0  0  0  0  0  0  0  0  0
    7.6025   -3.3194   -0.0000 C   0  0  0  0  0  0  0  0  0  0  0  0
    7.4954   -0.7138   -0.0000 C   0  0  0  0  0  0  0  0  0  0  0  0
    2.4985    3.0814   -0.0000 C   0  0  0  0  0  0  0  0  0  0  0  0
    8.2925   -1.9750   -0.0000 C   0  0  0  0  0  0  0  0  0  0  0  0
    9.7797   -1.9036   -0.0000 O   0  0  0  0  0  0  0  0  0  0  0  0
   10.4698   -0.5592   -0.0000 C   0  0  0  0  0  0  0  0  0  0  0  0
  1  2  2  0  0  0  0
  2  3  1  0  0  0  0
  2  4  1  0  0  0  0
  3  5  2  0  0  0  0
  3  6  1  0  0  0  0
  4  7  1  0  0  0  0
  5  8  1  0  0  0  0
  6  9  2  0  0  0  0
  7 10  1  0  0  0  0
  7 11  1  0  0  0  0
  8 12  2  0  0  0  0
 10 13  1  0  0  0  0
 11 14  2  0  0  0  0
 11 15  1  0  0  0  0
 12 16  1  0  0  0  0
 13 17  2  0  0  0  0
 13 18  1  0  0  0  0
 14 19  1  0  0  0  0
 15 20  2  0  0  0  0
 17 21  1  0  0  0  0
 18 22  2  0  0  0  0
 19 23  2  0  0  0  0
 21 24  2  0  0  0  0
 24 25  1  0  0  0  0
 25 26  1  0  0  0  0
  9 12  1  0  0  0  0
 20 23  1  0  0  0  0
 22 24  1  0  0  0  0
M  END
>  <MolRegNo>
645130

>  <m>
=

>  <Value>
4523

>  <Unit>
nM

>  <Type>
Ki

>  <pValue>
5.34

>  <Ligand Efficiency>
0.28

>  <Binding Efficiency>
15.47

>  <Surface Efficiency>
13.94

>  <Assay Index>
482945

>  <Assay Category>


>  <Assay Organism>
Homo sapiens

>  <Target ID>
56

>  <Target Name>
Androgen Receptor

>  <Target Organism>
Homo sapiens

>  <Target Description>
Target is a single protein chain

>  <Sequence Accession>
P10275

>  <Reference>
Bioorg Med Chem 18 (12), 4255-4268 (2010)

>  <Pubmed ID>
20510622

>  <DOI>
10.1016/j.bmc.2010.04.092

$$$$
645131
Actelion Java MolfileCreator 1.0

 33 35  0  0  0  0  0  0  0  0999 V2000
    0.0000   -0.0000   -0.0000 O   0  0  0  0  0  0  0  0  0  0  0  0
   -0.7104   -1.3142   -0.0000 N   0  0  0  0  0  0  0  0  0  0  0  0
    0.0829   -2.5692   -0.0000 O   0  0  0  0  0  0  0  0  0  0  0  0
   -2.2140   -1.3615   -0.0000 C   0  0  0  0  0  0  0  0  0  0  0  0
   -2.9244   -2.6757   -0.0000 C   0  0  0  0  0  0  0  0  0  0  0  0
   -3.0309   -0.0829   -0.0000 C   0  0  0  0  0  0  0  0  0  0  0  0
   -4.4280   -2.7231   -0.0000 C   0  0  0  0  0  0  0  0  0  0  0  0
   -4.5345   -0.1302   -0.0000 C   0  0  0  0  0  0  0  0  0  0  0  0
   -5.2331   -1.4444   -0.0000 C   0  0  0  0  0  0  0  0  0  0  0  0
   -6.7367   -1.4918   -0.0000 N   0  0  0  0  0  0  0  0  0  0  0  0
   -8.0391   -0.7341   -0.0000 C   0  0  0  0  0  0  0  0  0  0  0  0
   -8.0509    0.7696   -0.0000 C   0  0  0  0  0  0  0  0  0  0  0  0
   -9.3414   -1.4681   -0.0000 C   0  0  0  0  0  0  0  0  0  0  0  0
   -6.7722    1.5273   -0.0000 C   0  0  0  0  0  0  0  0  0  0  0  0
   -9.3532    1.5155   -0.0000 C   0  0  0  0  0  0  0  0  0  0  0  0
  -10.6438   -0.7104   -0.0000 C   0  0  0  0  0  0  0  0  0  0  0  0
   -6.7841    3.0309   -0.0000 C   0  0  0  0  0  0  0  0  0  0  0  0
   -9.3769    3.0191   -0.0000 C   0  0  0  0  0  0  0  0  0  0  0  0
  -10.6556    0.7932   -0.0000 O   0  0  0  0  0  0  0  0  0  0  0  0
  -11.9461   -1.4444   -0.0000 C   0  0  0  0  0  0  0  0  0  0  0  0
   -5.5054    3.7887   -0.0000 O   0  0  0  0  0  0  0  0  0  0  0  0
   -8.0983    3.7887   -0.0000 C   0  0  0  0  0  0  0  0  0  0  0  0
  -10.6911    3.7650   -0.0000 O   0  0  0  0  0  0  0  0  0  0  0  0
  -13.2485   -0.6867   -0.0000 C   0  0  0  0  0  0  0  0  0  0  0  0
  -11.9579   -2.9362   -0.0000 C   0  0  0  0  0  0  0  0  0  0  0  0
   -4.2267    3.0546   -0.0000 C   0  0  0  0  0  0  0  0  0  0  0  0
   -8.1219    5.2923   -0.0000 O   0  0  0  0  0  0  0  0  0  0  0  0
  -10.7148    5.2686   -0.0000 C   0  0  0  0  0  0  0  0  0  0  0  0
  -14.5508   -1.4207   -0.0000 C   0  0  0  0  0  0  0  0  0  0  0  0
  -13.2721   -3.6703   -0.0000 C   0  0  0  0  0  0  0  0  0  0  0  0
   -9.4361    6.0500   -0.0000 C   0  0  0  0  0  0  0  0  0  0  0  0
  -14.5626   -2.9125   -0.0000 C   0  0  0  0  0  0  0  0  0  0  0  0
  -15.8650   -3.6466   -0.0000 C   0  0  0  0  0  0  0  0  0  0  0  0
  1  2  2  0  0  0  0
  2  3  1  0  0  0  0
  2  4  1  0  0  0  0
  4  5  2  0  0  0  0
  4  6  1  0  0  0  0
  5  7  1  0  0  0  0
  6  8  2  0  0  0  0
  7  9  2  0  0  0  0
  9 10  1  0  0  0  0
 10 11  1  0  0  0  0
 11 12  1  0  0  0  0
 11 13  1  0  0  0  0
 12 14  2  0  0  0  0
 12 15  1  0  0  0  0
 13 16  1  0  0  0  0
 14 17  1  0  0  0  0
 15 18  2  0  0  0  0
 16 19  2  0  0  0  0
 16 20  1  0  0  0  0
 17 21  1  0  0  0  0
 17 22  2  0  0  0  0
 18 23  1  0  0  0  0
 20 24  2  0  0  0  0
 20 25  1  0  0  0  0
 21 26  1  0  0  0  0
 22 27  1  0  0  0  0
 23 28  1  0  0  0  0
 24 29  1  0  0  0  0
 25 30  2  0  0  0  0
 27 31  1  0  0  0  0
 29 32  2  0  0  0  0
 32 33  1  0  0  0  0
  8  9  1  0  0  0  0
 18 22  1  0  0  0  0
 30 32  1  0  0  0  0
M  CHG  2   2   1   3  -1
M  END
>  <MolRegNo>
645131

>  <m>
=

>  <Value>
490

>  <Unit>
nM

>  <Type>
Ki

>  <pValue>
6.31

>  <Ligand Efficiency>
0.26

>  <Binding Efficiency>
14.01

>  <Surface Efficiency>
6.31

>  <Assay Index>
482945

>  <Assay Category>


>  <Assay Organism>
Homo sapiens

>  <Target ID>
56

>  <Target Name>
Androgen Receptor

>  <Target Organism>
Homo sapiens

>  <Target Description>
Target is a single protein chain

>  <Sequence Accession>
P10275

>  <Reference>
Bioorg Med Chem 18 (12), 4255-4268 (2010)

>  <Pubmed ID>
20510622

>  <DOI>
10.1016/j.bmc.2010.04.092

$$$$
645162
Actelion Java MolfileCreator 1.0

 33 35  0  0  0  0  0  0  0  0999 V2000
    0.0000   -0.0000   -0.0000 O   0  0  0  0  0  0  0  0  0  0  0  0
   -0.7104   -1.3143   -0.0000 N   0  0  0  0  0  0  0  0  0  0  0  0
    0.0829   -2.5694   -0.0000 O   0  0  0  0  0  0  0  0  0  0  0  0
   -2.2142   -1.3617   -0.0000 C   0  0  0  0  0  0  0  0  0  0  0  0
   -2.9246   -2.6760   -0.0000 C   0  0  0  0  0  0  0  0  0  0  0  0
   -3.0312   -0.0829   -0.0000 C   0  0  0  0  0  0  0  0  0  0  0  0
   -4.4284   -2.7233   -0.0000 C   0  0  0  0  0  0  0  0  0  0  0  0
   -4.5349   -0.1302   -0.0000 C   0  0  0  0  0  0  0  0  0  0  0  0
   -5.2335   -1.4446   -0.0000 C   0  0  0  0  0  0  0  0  0  0  0  0
   -6.7373   -1.4919   -0.0000 N   0  0  0  0  0  0  0  0  0  0  0  0
   -8.0398   -0.7341   -0.0000 C   0  0  0  0  0  0  0  0  0  0  0  0
   -8.0516    0.7696   -0.0000 C   0  0  0  0  0  0  0  0  0  0  0  0
   -9.3422   -1.4682   -0.0000 C   0  0  0  0  0  0  0  0  0  0  0  0
   -6.7728    1.5274   -0.0000 C   0  0  0  0  0  0  0  0  0  0  0  0
   -9.3541    1.5156   -0.0000 C   0  0  0  0  0  0  0  0  0  0  0  0
  -10.6447   -0.7104   -0.0000 C   0  0  0  0  0  0  0  0  0  0  0  0
   -6.7847    3.0312   -0.0000 C   0  0  0  0  0  0  0  0  0  0  0  0
   -9.3777    3.0194   -0.0000 C   0  0  0  0  0  0  0  0  0  0  0  0
  -10.6565    0.7933   -0.0000 O   0  0  0  0  0  0  0  0  0  0  0  0
  -11.9472   -1.4446   -0.0000 C   0  0  0  0  0  0  0  0  0  0  0  0
   -5.5059    3.7890   -0.0000 O   0  0  0  0  0  0  0  0  0  0  0  0
   -8.0990    3.7890   -0.0000 C   0  0  0  0  0  0  0  0  0  0  0  0
  -10.6921    3.7653   -0.0000 O   0  0  0  0  0  0  0  0  0  0  0  0
  -11.9590   -2.9365   -0.0000 C   0  0  0  0  0  0  0  0  0  0  0  0
  -13.2496   -0.6868   -0.0000 C   0  0  0  0  0  0  0  0  0  0  0  0
   -4.2271    3.0549   -0.0000 C   0  0  0  0  0  0  0  0  0  0  0  0
   -8.1226    5.2927   -0.0000 O   0  0  0  0  0  0  0  0  0  0  0  0
  -10.7157    5.2691   -0.0000 C   0  0  0  0  0  0  0  0  0  0  0  0
  -13.2733   -3.6706   -0.0000 C   0  0  0  0  0  0  0  0  0  0  0  0
  -14.5521   -1.4209   -0.0000 C   0  0  0  0  0  0  0  0  0  0  0  0
   -9.4370    6.0505   -0.0000 C   0  0  0  0  0  0  0  0  0  0  0  0
  -14.5758   -2.9128   -0.0000 C   0  0  0  0  0  0  0  0  0  0  0  0
  -13.2851   -5.1507   -0.0000 C   0  0  0  0  0  0  0  0  0  0  0  0
  1  2  2  0  0  0  0
  2  3  1  0  0  0  0
  2  4  1  0  0  0  0
  4  5  2  0  0  0  0
  4  6  1  0  0  0  0
  5  7  1  0  0  0  0
  6  8  2  0  0  0  0
  7  9  2  0  0  0  0
  9 10  1  0  0  0  0
 10 11  1  0  0  0  0
 11 12  1  0  0  0  0
 11 13  1  0  0  0  0
 12 14  2  0  0  0  0
 12 15  1  0  0  0  0
 13 16  1  0  0  0  0
 14 17  1  0  0  0  0
 15 18  2  0  0  0  0
 16 19  2  0  0  0  0
 16 20  1  0  0  0  0
 17 21  1  0  0  0  0
 17 22  2  0  0  0  0
 18 23  1  0  0  0  0
 20 24  2  0  0  0  0
 20 25  1  0  0  0  0
 21 26  1  0  0  0  0
 22 27  1  0  0  0  0
 23 28  1  0  0  0  0
 24 29  1  0  0  0  0
 25 30  2  0  0  0  0
 27 31  1  0  0  0  0
 29 32  2  0  0  0  0
 29 33  1  0  0  0  0
  8  9  1  0  0  0  0
 18 22  1  0  0  0  0
 30 32  1  0  0  0  0
M  CHG  2   2   1   3  -1
M  END
>  <MolRegNo>
645162

>  <m>
=

>  <Value>
1531

>  <Unit>
nM

>  <Type>
Ki

>  <pValue>
5.82

>  <Ligand Efficiency>
0.24

>  <Binding Efficiency>
12.91

>  <Surface Efficiency>
5.82

>  <Assay Index>
482945

>  <Assay Category>


>  <Assay Organism>
Homo sapiens

>  <Target ID>
56

>  <Target Name>
Androgen Receptor

>  <Target Organism>
Homo sapiens

>  <Target Description>
Target is a single protein chain

>  <Sequence Accession>
P10275

>  <Reference>
Bioorg Med Chem 18 (12), 4255-4268 (2010)

>  <Pubmed ID>
20510622

>  <DOI>
10.1016/j.bmc.2010.04.092

$$$$
645163
Actelion Java MolfileCreator 1.0

 33 35  0  0  0  0  0  0  0  0999 V2000
    0.0000   -0.0000   -0.0000 F   0  0  0  0  0  0  0  0  0  0  0  0
   -0.0119    1.5079   -0.0000 C   0  0  0  0  0  0  0  0  0  0  0  0
    1.2823    2.2678   -0.0000 C   0  0  0  0  0  0  0  0  0  0  0  0
   -1.3179    2.2678   -0.0000 C   0  0  0  0  0  0  0  0  0  0  0  0
    1.2704    3.7876   -0.0000 C   0  0  0  0  0  0  0  0  0  0  0  0
   -1.3298    3.7876   -0.0000 C   0  0  0  0  0  0  0  0  0  0  0  0
    2.5528    4.5475   -0.0000 C   0  0  0  0  0  0  0  0  0  0  0  0
   -0.0356    4.5475   -0.0000 C   0  0  0  0  0  0  0  0  0  0  0  0
    2.5409    6.0554   -0.0000 O   0  0  0  0  0  0  0  0  0  0  0  0
    3.8351    3.8113   -0.0000 C   0  0  0  0  0  0  0  0  0  0  0  0
    5.1174    4.5712   -0.0000 C   0  0  0  0  0  0  0  0  0  0  0  0
    6.3997    3.8351   -0.0000 N   0  0  0  0  0  0  0  0  0  0  0  0
    5.1055    6.0791   -0.0000 C   0  0  0  0  0  0  0  0  0  0  0  0
    7.8839    3.9063   -0.0000 C   0  0  0  0  0  0  0  0  0  0  0  0
    6.3878    6.8390   -0.0000 C   0  0  0  0  0  0  0  0  0  0  0  0
    3.7995    6.8271   -0.0000 C   0  0  0  0  0  0  0  0  0  0  0  0
    8.6675    2.6477   -0.0000 C   0  0  0  0  0  0  0  0  0  0  0  0
    8.5606    5.2480   -0.0000 C   0  0  0  0  0  0  0  0  0  0  0  0
    6.3760    8.3469   -0.0000 C   0  0  0  0  0  0  0  0  0  0  0  0
    3.7757    8.3351   -0.0000 C   0  0  0  0  0  0  0  0  0  0  0  0
   10.1517    2.7190   -0.0000 C   0  0  0  0  0  0  0  0  0  0  0  0
   10.0448    5.3192   -0.0000 C   0  0  0  0  0  0  0  0  0  0  0  0
    7.6583    9.1068   -0.0000 O   0  0  0  0  0  0  0  0  0  0  0  0
    5.0580    9.1068   -0.0000 C   0  0  0  0  0  0  0  0  0  0  0  0
    2.4578    9.0831   -0.0000 O   0  0  0  0  0  0  0  0  0  0  0  0
   10.8403    4.0607   -0.0000 C   0  0  0  0  0  0  0  0  0  0  0  0
    8.9406    8.3707   -0.0000 C   0  0  0  0  0  0  0  0  0  0  0  0
    5.0343   10.6147   -0.0000 O   0  0  0  0  0  0  0  0  0  0  0  0
    2.4340   10.5910   -0.0000 C   0  0  0  0  0  0  0  0  0  0  0  0
   12.3245    4.1319   -0.0000 N   0  0  0  0  0  0  0  0  0  0  0  0
    3.7163   11.3746   -0.0000 C   0  0  0  0  0  0  0  0  0  0  0  0
   13.0131    5.4736   -0.0000 O   0  0  0  0  0  0  0  0  0  0  0  0
   13.1200    2.8733   -0.0000 O   0  0  0  0  0  0  0  0  0  0  0  0
  1  2  1  0  0  0  0
  2  3  2  0  0  0  0
  2  4  1  0  0  0  0
  3  5  1  0  0  0  0
  4  6  2  0  0  0  0
  5  7  1  0  0  0  0
  5  8  2  0  0  0  0
  7  9  2  0  0  0  0
  7 10  1  0  0  0  0
 10 11  1  0  0  0  0
 11 12  1  0  0  0  0
 11 13  1  0  0  0  0
 12 14  1  0  0  0  0
 13 15  2  0  0  0  0
 13 16  1  0  0  0  0
 14 17  2  0  0  0  0
 14 18  1  0  0  0  0
 15 19  1  0  0  0  0
 16 20  2  0  0  0  0
 17 21  1  0  0  0  0
 18 22  2  0  0  0  0
 19 23  1  0  0  0  0
 19 24  2  0  0  0  0
 20 25  1  0  0  0  0
 21 26  2  0  0  0  0
 23 27  1  0  0  0  0
 24 28  1  0  0  0  0
 25 29  1  0  0  0  0
 26 30  1  0  0  0  0
 28 31  1  0  0  0  0
 30 32  2  0  0  0  0
 30 33  1  0  0  0  0
  6  8  1  0  0  0  0
 20 24  1  0  0  0  0
 22 26  1  0  0  0  0
M  CHG  2  30   1  33  -1
M  END
>  <MolRegNo>
645163

>  <m>
=

>  <Value>
3178

>  <Unit>
nM

>  <Type>
Ki

>  <pValue>
5.5

>  <Ligand Efficiency>
0.23

>  <Binding Efficiency>
12.1

>  <Surface Efficiency>
5.5

>  <Assay Index>
482945

>  <Assay Category>


>  <Assay Organism>
Homo sapiens

>  <Target ID>
56

>  <Target Name>
Androgen Receptor

>  <Target Organism>
Homo sapiens

>  <Target Description>
Target is a single protein chain

>  <Sequence Accession>
P10275

>  <Reference>
Bioorg Med Chem 18 (12), 4255-4268 (2010)

>  <Pubmed ID>
20510622

>  <DOI>
10.1016/j.bmc.2010.04.092

$$$$
645164
Actelion Java MolfileCreator 1.0

 28 30  0  0  0  0  0  0  0  0999 V2000
    0.0000   -0.0000   -0.0000 F   0  0  0  0  0  0  0  0  0  0  0  0
   -1.3090   -0.7378   -0.0000 C   0  0  0  0  0  0  0  0  0  0  0  0
   -1.3209   -2.2253   -0.0000 C   0  0  0  0  0  0  0  0  0  0  0  0
   -2.6299    0.0238   -0.0000 C   0  0  0  0  0  0  0  0  0  0  0  0
   -2.6299   -2.9631   -0.0000 C   0  0  0  0  0  0  0  0  0  0  0  0
   -3.9389   -0.7259   -0.0000 C   0  0  0  0  0  0  0  0  0  0  0  0
   -3.9389   -2.2134   -0.0000 C   0  0  0  0  0  0  0  0  0  0  0  0
   -2.6418   -4.4506   -0.0000 C   0  0  0  0  0  0  0  0  0  0  0  0
   -1.3566   -5.1884   -0.0000 N   0  0  0  0  0  0  0  0  0  0  0  0
   -3.9508   -5.1884   -0.0000 C   0  0  0  0  0  0  0  0  0  0  0  0
    0.1309   -5.1170   -0.0000 C   0  0  0  0  0  0  0  0  0  0  0  0
   -5.2598   -4.4268   -0.0000 C   0  0  0  0  0  0  0  0  0  0  0  0
    0.9163   -6.3784   -0.0000 C   0  0  0  0  0  0  0  0  0  0  0  0
    0.8092   -3.7723   -0.0000 C   0  0  0  0  0  0  0  0  0  0  0  0
   -5.2717   -2.9155   -0.0000 O   0  0  0  0  0  0  0  0  0  0  0  0
   -6.5688   -5.1646   -0.0000 C   0  0  0  0  0  0  0  0  0  0  0  0
    2.4038   -6.3070   -0.0000 C   0  0  0  0  0  0  0  0  0  0  0  0
    2.2967   -3.7009   -0.0000 C   0  0  0  0  0  0  0  0  0  0  0  0
   -6.5807   -6.6640   -0.0000 C   0  0  0  0  0  0  0  0  0  0  0  0
   -7.8778   -4.4030   -0.0000 C   0  0  0  0  0  0  0  0  0  0  0  0
    3.0940   -4.9623   -0.0000 C   0  0  0  0  0  0  0  0  0  0  0  0
   -7.9016   -7.4018   -0.0000 C   0  0  0  0  0  0  0  0  0  0  0  0
   -9.1868   -5.1408   -0.0000 C   0  0  0  0  0  0  0  0  0  0  0  0
    4.5815   -4.8909   -0.0000 N   0  0  0  0  0  0  0  0  0  0  0  0
   -9.2106   -6.6402   -0.0000 C   0  0  0  0  0  0  0  0  0  0  0  0
   -7.9135   -8.8893   -0.0000 C   0  0  0  0  0  0  0  0  0  0  0  0
    5.2717   -3.5462   -0.0000 O   0  0  0  0  0  0  0  0  0  0  0  0
    5.3788   -6.1404   -0.0000 O   0  0  0  0  0  0  0  0  0  0  0  0
  1  2  1  0  0  0  0
  2  3  2  0  0  0  0
  2  4  1  0  0  0  0
  3  5  1  0  0  0  0
  4  6  2  0  0  0  0
  5  7  2  0  0  0  0
  5  8  1  0  0  0  0
  8  9  1  0  0  0  0
  8 10  1  0  0  0  0
  9 11  1  0  0  0  0
 10 12  1  0  0  0  0
 11 13  2  0  0  0  0
 11 14  1  0  0  0  0
 12 15  2  0  0  0  0
 12 16  1  0  0  0  0
 13 17  1  0  0  0  0
 14 18  2  0  0  0  0
 16 19  2  0  0  0  0
 16 20  1  0  0  0  0
 17 21  2  0  0  0  0
 19 22  1  0  0  0  0
 20 23  2  0  0  0  0
 21 24  1  0  0  0  0
 22 25  2  0  0  0  0
 22 26  1  0  0  0  0
 24 27  2  0  0  0  0
 24 28  1  0  0  0  0
  6  7  1  0  0  0  0
 18 21  1  0  0  0  0
 23 25  1  0  0  0  0
M  CHG  2  24   1  28  -1
M  END
>  <MolRegNo>
645164

>  <m>
=

>  <Value>
65

>  <Unit>
nM

>  <Type>
Ki

>  <pValue>
7.19

>  <Ligand Efficiency>
0.35

>  <Binding Efficiency>
18.99

>  <Surface Efficiency>
9.95

>  <Assay Index>
482945

>  <Assay Category>


>  <Assay Organism>
Homo sapiens

>  <Target ID>
56

>  <Target Name>
Androgen Receptor

>  <Target Organism>
Homo sapiens

>  <Target Description>
Target is a single protein chain

>  <Sequence Accession>
P10275

>  <Reference>
Bioorg Med Chem 18 (12), 4255-4268 (2010)

>  <Pubmed ID>
20510622

>  <DOI>
10.1016/j.bmc.2010.04.092

$$$$
645165
Actelion Java MolfileCreator 1.0

 28 30  0  0  0  0  0  0  0  0999 V2000
    0.0000   -0.0000   -0.0000 F   0  0  0  0  0  0  0  0  0  0  0  0
   -0.0119    1.5095   -0.0000 C   0  0  0  0  0  0  0  0  0  0  0  0
    1.2837    2.2702   -0.0000 C   0  0  0  0  0  0  0  0  0  0  0  0
   -1.3193    2.2702   -0.0000 C   0  0  0  0  0  0  0  0  0  0  0  0
    1.2718    3.7916   -0.0000 C   0  0  0  0  0  0  0  0  0  0  0  0
   -1.3312    3.7797   -0.0000 C   0  0  0  0  0  0  0  0  0  0  0  0
    2.5554    4.5523   -0.0000 C   0  0  0  0  0  0  0  0  0  0  0  0
   -0.0357    4.5523   -0.0000 C   0  0  0  0  0  0  0  0  0  0  0  0
    2.5436    6.0618   -0.0000 O   0  0  0  0  0  0  0  0  0  0  0  0
    3.8391    3.8153   -0.0000 C   0  0  0  0  0  0  0  0  0  0  0  0
    5.1228    4.5760   -0.0000 C   0  0  0  0  0  0  0  0  0  0  0  0
    6.4064    3.8391   -0.0000 N   0  0  0  0  0  0  0  0  0  0  0  0
    5.1109    6.0855   -0.0000 C   0  0  0  0  0  0  0  0  0  0  0  0
    7.8922    3.9104   -0.0000 C   0  0  0  0  0  0  0  0  0  0  0  0
    6.3946    6.8462   -0.0000 C   0  0  0  0  0  0  0  0  0  0  0  0
    3.8035    6.8343   -0.0000 C   0  0  0  0  0  0  0  0  0  0  0  0
    8.6766    2.6505   -0.0000 C   0  0  0  0  0  0  0  0  0  0  0  0
    8.5697    5.2535   -0.0000 C   0  0  0  0  0  0  0  0  0  0  0  0
    6.3827    8.3557   -0.0000 C   0  0  0  0  0  0  0  0  0  0  0  0
    3.7797    8.3438   -0.0000 C   0  0  0  0  0  0  0  0  0  0  0  0
   10.1624    2.7218   -0.0000 C   0  0  0  0  0  0  0  0  0  0  0  0
   10.0554    5.3248   -0.0000 C   0  0  0  0  0  0  0  0  0  0  0  0
    7.6663    9.1164   -0.0000 F   0  0  0  0  0  0  0  0  0  0  0  0
    5.0634    9.1164   -0.0000 C   0  0  0  0  0  0  0  0  0  0  0  0
   10.8517    4.0649   -0.0000 C   0  0  0  0  0  0  0  0  0  0  0  0
   12.3375    4.1363   -0.0000 N   0  0  0  0  0  0  0  0  0  0  0  0
   13.0268    5.4794   -0.0000 O   0  0  0  0  0  0  0  0  0  0  0  0
   13.1338    2.8883   -0.0000 O   0  0  0  0  0  0  0  0  0  0  0  0
  1  2  1  0  0  0  0
  2  3  2  0  0  0  0
  2  4  1  0  0  0  0
  3  5  1  0  0  0  0
  4  6  2  0  0  0  0
  5  7  1  0  0  0  0
  5  8  2  0  0  0  0
  7  9  2  0  0  0  0
  7 10  1  0  0  0  0
 10 11  1  0  0  0  0
 11 12  1  0  0  0  0
 11 13  1  0  0  0  0
 12 14  1  0  0  0  0
 13 15  2  0  0  0  0
 13 16  1  0  0  0  0
 14 17  2  0  0  0  0
 14 18  1  0  0  0  0
 15 19  1  0  0  0  0
 16 20  2  0  0  0  0
 17 21  1  0  0  0  0
 18 22  2  0  0  0  0
 19 23  1  0  0  0  0
 19 24  2  0  0  0  0
 21 25  2  0  0  0  0
 25 26  1  0  0  0  0
 26 27  2  0  0  0  0
 26 28  1  0  0  0  0
  6  8  1  0  0  0  0
 20 24  1  0  0  0  0
 22 25  1  0  0  0  0
M  CHG  2  26   1  28  -1
M  END
>  <MolRegNo>
645165

>  <m>
=

>  <Value>
51

>  <Unit>
nM

>  <Type>
Ki

>  <pValue>
7.29

>  <Ligand Efficiency>
0.36

>  <Binding Efficiency>
19.07

>  <Surface Efficiency>
10.09

>  <Assay Index>
482945

>  <Assay Category>


>  <Assay Organism>
Homo sapiens

>  <Target ID>
56

>  <Target Name>
Androgen Receptor

>  <Target Organism>
Homo sapiens

>  <Target Description>
Target is a single protein chain

>  <Sequence Accession>
P10275

>  <Reference>
Bioorg Med Chem 18 (12), 4255-4268 (2010)

>  <Pubmed ID>
20510622

>  <DOI>
10.1016/j.bmc.2010.04.092

$$$$
645196
Actelion Java MolfileCreator 1.0

 28 30  0  0  0  0  0  0  0  0999 V2000
    0.0000   -0.0000   -0.0000 F   0  0  0  0  0  0  0  0  0  0  0  0
   -1.3089   -0.7377   -0.0000 C   0  0  0  0  0  0  0  0  0  0  0  0
   -1.3208   -2.2251   -0.0000 C   0  0  0  0  0  0  0  0  0  0  0  0
   -2.6296    0.0238   -0.0000 C   0  0  0  0  0  0  0  0  0  0  0  0
   -2.6296   -2.9628   -0.0000 C   0  0  0  0  0  0  0  0  0  0  0  0
   -3.9385   -0.7258   -0.0000 C   0  0  0  0  0  0  0  0  0  0  0  0
   -3.9385   -2.2132   -0.0000 C   0  0  0  0  0  0  0  0  0  0  0  0
   -2.6415   -4.4502   -0.0000 C   0  0  0  0  0  0  0  0  0  0  0  0
   -1.3565   -5.1879   -0.0000 N   0  0  0  0  0  0  0  0  0  0  0  0
   -3.9504   -5.1879   -0.0000 C   0  0  0  0  0  0  0  0  0  0  0  0
    0.1309   -5.1165   -0.0000 C   0  0  0  0  0  0  0  0  0  0  0  0
   -5.2593   -4.4264   -0.0000 C   0  0  0  0  0  0  0  0  0  0  0  0
    0.9162   -6.3778   -0.0000 C   0  0  0  0  0  0  0  0  0  0  0  0
    0.8091   -3.7719   -0.0000 C   0  0  0  0  0  0  0  0  0  0  0  0
   -5.2712   -2.9152   -0.0000 O   0  0  0  0  0  0  0  0  0  0  0  0
   -6.5682   -5.1641   -0.0000 C   0  0  0  0  0  0  0  0  0  0  0  0
    2.4036   -6.3064   -0.0000 C   0  0  0  0  0  0  0  0  0  0  0  0
    2.2965   -3.7005   -0.0000 C   0  0  0  0  0  0  0  0  0  0  0  0
   -7.8770   -4.4026   -0.0000 C   0  0  0  0  0  0  0  0  0  0  0  0
   -6.5801   -6.6633   -0.0000 C   0  0  0  0  0  0  0  0  0  0  0  0
    3.0937   -4.9618   -0.0000 C   0  0  0  0  0  0  0  0  0  0  0  0
   -9.1859   -5.1403   -0.0000 C   0  0  0  0  0  0  0  0  0  0  0  0
   -7.9008   -7.4011   -0.0000 C   0  0  0  0  0  0  0  0  0  0  0  0
    4.5810   -4.8904   -0.0000 N   0  0  0  0  0  0  0  0  0  0  0  0
   -9.1978   -6.6395   -0.0000 C   0  0  0  0  0  0  0  0  0  0  0  0
    5.2712   -3.5459   -0.0000 O   0  0  0  0  0  0  0  0  0  0  0  0
    5.3783   -6.1398   -0.0000 O   0  0  0  0  0  0  0  0  0  0  0  0
  -10.5067   -7.3773   -0.0000 C   0  0  0  0  0  0  0  0  0  0  0  0
  1  2  1  0  0  0  0
  2  3  2  0  0  0  0
  2  4  1  0  0  0  0
  3  5  1  0  0  0  0
  4  6  2  0  0  0  0
  5  7  2  0  0  0  0
  5  8  1  0  0  0  0
  8  9  1  0  0  0  0
  8 10  1  0  0  0  0
  9 11  1  0  0  0  0
 10 12  1  0  0  0  0
 11 13  2  0  0  0  0
 11 14  1  0  0  0  0
 12 15  2  0  0  0  0
 12 16  1  0  0  0  0
 13 17  1  0  0  0  0
 14 18  2  0  0  0  0
 16 19  2  0  0  0  0
 16 20  1  0  0  0  0
 17 21  2  0  0  0  0
 19 22  1  0  0  0  0
 20 23  2  0  0  0  0
 21 24  1  0  0  0  0
 22 25  2  0  0  0  0
 24 26  2  0  0  0  0
 24 27  1  0  0  0  0
 25 28  1  0  0  0  0
  6  7  1  0  0  0  0
 18 21  1  0  0  0  0
 23 25  1  0  0  0  0
M  CHG  2  24   1  27  -1
M  END
>  <MolRegNo>
645196

>  <m>
=

>  <Value>
96

>  <Unit>
nM

>  <Type>
Ki

>  <pValue>
7.02

>  <Ligand Efficiency>
0.34

>  <Binding Efficiency>
18.55

>  <Surface Efficiency>
9.71

>  <Assay Index>
482945

>  <Assay Category>


>  <Assay Organism>
Homo sapiens

>  <Target ID>
56

>  <Target Name>
Androgen Receptor

>  <Target Organism>
Homo sapiens

>  <Target Description>
Target is a single protein chain

>  <Sequence Accession>
P10275

>  <Reference>
Bioorg Med Chem 18 (12), 4255-4268 (2010)

>  <Pubmed ID>
20510622

>  <DOI>
10.1016/j.bmc.2010.04.092

$$$$
645197
Actelion Java MolfileCreator 1.0

 28 30  0  0  0  0  0  0  0  0999 V2000
    0.0000   -0.0000   -0.0000 Cl  0  0  0  0  0  0  0  0  0  0  0  0
   -0.0119    1.5107   -0.0000 C   0  0  0  0  0  0  0  0  0  0  0  0
    1.2847    2.2721   -0.0000 C   0  0  0  0  0  0  0  0  0  0  0  0
   -1.3204    2.2721   -0.0000 C   0  0  0  0  0  0  0  0  0  0  0  0
    1.2728    3.7947   -0.0000 C   0  0  0  0  0  0  0  0  0  0  0  0
   -1.3323    3.7828   -0.0000 C   0  0  0  0  0  0  0  0  0  0  0  0
    2.5576    4.5560   -0.0000 C   0  0  0  0  0  0  0  0  0  0  0  0
   -0.0357    4.5560   -0.0000 C   0  0  0  0  0  0  0  0  0  0  0  0
    2.5457    6.0668   -0.0000 O   0  0  0  0  0  0  0  0  0  0  0  0
    3.8423    3.8185   -0.0000 C   0  0  0  0  0  0  0  0  0  0  0  0
    5.1270    4.5798   -0.0000 C   0  0  0  0  0  0  0  0  0  0  0  0
    6.4117    3.8423   -0.0000 N   0  0  0  0  0  0  0  0  0  0  0  0
    5.1151    6.0905   -0.0000 C   0  0  0  0  0  0  0  0  0  0  0  0
    7.8987    3.8661   -0.0000 C   0  0  0  0  0  0  0  0  0  0  0  0
    6.3998    6.8519   -0.0000 C   0  0  0  0  0  0  0  0  0  0  0  0
    3.8066    6.8400   -0.0000 C   0  0  0  0  0  0  0  0  0  0  0  0
    8.6362    2.5813   -0.0000 C   0  0  0  0  0  0  0  0  0  0  0  0
    8.6243    5.1746   -0.0000 C   0  0  0  0  0  0  0  0  0  0  0  0
    6.3879    8.3626   -0.0000 C   0  0  0  0  0  0  0  0  0  0  0  0
    3.7828    8.3507   -0.0000 C   0  0  0  0  0  0  0  0  0  0  0  0
   10.1232    2.6051   -0.0000 C   0  0  0  0  0  0  0  0  0  0  0  0
   10.1113    5.1984   -0.0000 C   0  0  0  0  0  0  0  0  0  0  0  0
    7.6727    9.1239   -0.0000 F   0  0  0  0  0  0  0  0  0  0  0  0
    5.0675    9.1239   -0.0000 C   0  0  0  0  0  0  0  0  0  0  0  0
   10.8488    3.9255   -0.0000 C   0  0  0  0  0  0  0  0  0  0  0  0
   12.3357    3.9493   -0.0000 N   0  0  0  0  0  0  0  0  0  0  0  0
   13.0733    5.2698   -0.0000 O   0  0  0  0  0  0  0  0  0  0  0  0
   13.0852    2.6646   -0.0000 O   0  0  0  0  0  0  0  0  0  0  0  0
  1  2  1  0  0  0  0
  2  3  2  0  0  0  0
  2  4  1  0  0  0  0
  3  5  1  0  0  0  0
  4  6  2  0  0  0  0
  5  7  1  0  0  0  0
  5  8  2  0  0  0  0
  7  9  2  0  0  0  0
  7 10  1  0  0  0  0
 10 11  1  0  0  0  0
 11 12  1  0  0  0  0
 11 13  1  0  0  0  0
 12 14  1  0  0  0  0
 13 15  2  0  0  0  0
 13 16  1  0  0  0  0
 14 17  2  0  0  0  0
 14 18  1  0  0  0  0
 15 19  1  0  0  0  0
 16 20  2  0  0  0  0
 17 21  1  0  0  0  0
 18 22  2  0  0  0  0
 19 23  1  0  0  0  0
 19 24  2  0  0  0  0
 21 25  2  0  0  0  0
 25 26  1  0  0  0  0
 26 27  2  0  0  0  0
 26 28  1  0  0  0  0
  6  8  1  0  0  0  0
 20 24  1  0  0  0  0
 22 25  1  0  0  0  0
M  CHG  2  26   1  28  -1
M  END
>  <MolRegNo>
645197

>  <m>
=

>  <Value>
110

>  <Unit>
nM

>  <Type>
Ki

>  <pValue>
6.96

>  <Ligand Efficiency>
0.34

>  <Binding Efficiency>
17.45

>  <Surface Efficiency>
9.63

>  <Assay Index>
482945

>  <Assay Category>


>  <Assay Organism>
Homo sapiens

>  <Target ID>
56

>  <Target Name>
Androgen Receptor

>  <Target Organism>
Homo sapiens

>  <Target Description>
Target is a single protein chain

>  <Sequence Accession>
P10275

>  <Reference>
Bioorg Med Chem 18 (12), 4255-4268 (2010)

>  <Pubmed ID>
20510622

>  <DOI>
10.1016/j.bmc.2010.04.092

$$$$
645198
Actelion Java MolfileCreator 1.0

 28 30  0  0  0  0  0  0  0  0999 V2000
    0.0000   -0.0000   -0.0000 Br  0  0  0  0  0  0  0  0  0  0  0  0
   -0.0119    1.5105   -0.0000 C   0  0  0  0  0  0  0  0  0  0  0  0
    1.2846    2.2718   -0.0000 C   0  0  0  0  0  0  0  0  0  0  0  0
   -1.3202    2.2718   -0.0000 C   0  0  0  0  0  0  0  0  0  0  0  0
    1.2727    3.7942   -0.0000 C   0  0  0  0  0  0  0  0  0  0  0  0
   -1.3321    3.7942   -0.0000 C   0  0  0  0  0  0  0  0  0  0  0  0
    2.5572    4.5554   -0.0000 C   0  0  0  0  0  0  0  0  0  0  0  0
   -0.0357    4.5554   -0.0000 C   0  0  0  0  0  0  0  0  0  0  0  0
    2.5453    6.0660   -0.0000 O   0  0  0  0  0  0  0  0  0  0  0  0
    3.8418    3.8180   -0.0000 C   0  0  0  0  0  0  0  0  0  0  0  0
    5.1263    4.5792   -0.0000 C   0  0  0  0  0  0  0  0  0  0  0  0
    6.4109    3.8418   -0.0000 N   0  0  0  0  0  0  0  0  0  0  0  0
    5.1144    6.0898   -0.0000 C   0  0  0  0  0  0  0  0  0  0  0  0
    7.8977    3.8656   -0.0000 C   0  0  0  0  0  0  0  0  0  0  0  0
    6.3990    6.8510   -0.0000 C   0  0  0  0  0  0  0  0  0  0  0  0
    3.8061    6.8391   -0.0000 C   0  0  0  0  0  0  0  0  0  0  0  0
    8.6351    2.5810   -0.0000 C   0  0  0  0  0  0  0  0  0  0  0  0
    8.6232    5.1739   -0.0000 C   0  0  0  0  0  0  0  0  0  0  0  0
    6.3871    8.3615   -0.0000 C   0  0  0  0  0  0  0  0  0  0  0  0
    3.7823    8.3496   -0.0000 C   0  0  0  0  0  0  0  0  0  0  0  0
   10.1218    2.6048   -0.0000 C   0  0  0  0  0  0  0  0  0  0  0  0
   10.1100    5.1977   -0.0000 C   0  0  0  0  0  0  0  0  0  0  0  0
    7.6717    9.1227   -0.0000 F   0  0  0  0  0  0  0  0  0  0  0  0
    5.0669    9.1227   -0.0000 C   0  0  0  0  0  0  0  0  0  0  0  0
   10.8474    3.9250   -0.0000 C   0  0  0  0  0  0  0  0  0  0  0  0
   12.3341    3.9488   -0.0000 N   0  0  0  0  0  0  0  0  0  0  0  0
   13.0716    5.2691   -0.0000 O   0  0  0  0  0  0  0  0  0  0  0  0
   13.0835    2.6643   -0.0000 O   0  0  0  0  0  0  0  0  0  0  0  0
  1  2  1  0  0  0  0
  2  3  2  0  0  0  0
  2  4  1  0  0  0  0
  3  5  1  0  0  0  0
  4  6  2  0  0  0  0
  5  7  1  0  0  0  0
  5  8  2  0  0  0  0
  7  9  2  0  0  0  0
  7 10  1  0  0  0  0
 10 11  1  0  0  0  0
 11 12  1  0  0  0  0
 11 13  1  0  0  0  0
 12 14  1  0  0  0  0
 13 15  2  0  0  0  0
 13 16  1  0  0  0  0
 14 17  2  0  0  0  0
 14 18  1  0  0  0  0
 15 19  1  0  0  0  0
 16 20  2  0  0  0  0
 17 21  1  0  0  0  0
 18 22  2  0  0  0  0
 19 23  1  0  0  0  0
 19 24  2  0  0  0  0
 21 25  2  0  0  0  0
 25 26  1  0  0  0  0
 26 27  2  0  0  0  0
 26 28  1  0  0  0  0
  6  8  1  0  0  0  0
 20 24  1  0  0  0  0
 22 25  1  0  0  0  0
M  CHG  2  26   1  28  -1
M  END
>  <MolRegNo>
645198

>  <m>
=

>  <Value>
124

>  <Unit>
nM

>  <Type>
Ki

>  <pValue>
6.91

>  <Ligand Efficiency>
0.34

>  <Binding Efficiency>
15.58

>  <Surface Efficiency>
9.56

>  <Assay Index>
482945

>  <Assay Category>


>  <Assay Organism>
Homo sapiens

>  <Target ID>
56

>  <Target Name>
Androgen Receptor

>  <Target Organism>
Homo sapiens

>  <Target Description>
Target is a single protein chain

>  <Sequence Accession>
P10275

>  <Reference>
Bioorg Med Chem 18 (12), 4255-4268 (2010)

>  <Pubmed ID>
20510622

>  <DOI>
10.1016/j.bmc.2010.04.092

$$$$
645199
Actelion Java MolfileCreator 1.0

 27 29  0  0  0  0  0  0  0  0999 V2000
    0.0000   -0.0000   -0.0000 F   0  0  0  0  0  0  0  0  0  0  0  0
   -1.3101   -0.7384   -0.0000 C   0  0  0  0  0  0  0  0  0  0  0  0
   -1.3220   -2.2271   -0.0000 C   0  0  0  0  0  0  0  0  0  0  0  0
   -2.6320    0.0238   -0.0000 C   0  0  0  0  0  0  0  0  0  0  0  0
   -2.6320   -2.9655   -0.0000 C   0  0  0  0  0  0  0  0  0  0  0  0
   -3.9421   -0.7265   -0.0000 C   0  0  0  0  0  0  0  0  0  0  0  0
   -3.9421   -2.2152   -0.0000 C   0  0  0  0  0  0  0  0  0  0  0  0
   -2.6439   -4.4542   -0.0000 C   0  0  0  0  0  0  0  0  0  0  0  0
   -1.3577   -5.1926   -0.0000 N   0  0  0  0  0  0  0  0  0  0  0  0
   -3.9540   -5.1926   -0.0000 C   0  0  0  0  0  0  0  0  0  0  0  0
    0.1310   -5.1688   -0.0000 C   0  0  0  0  0  0  0  0  0  0  0  0
   -5.2641   -4.4304   -0.0000 C   0  0  0  0  0  0  0  0  0  0  0  0
    0.8694   -6.4550   -0.0000 C   0  0  0  0  0  0  0  0  0  0  0  0
    0.8575   -3.8587   -0.0000 C   0  0  0  0  0  0  0  0  0  0  0  0
   -5.2760   -2.9179   -0.0000 O   0  0  0  0  0  0  0  0  0  0  0  0
   -6.5741   -5.1688   -0.0000 C   0  0  0  0  0  0  0  0  0  0  0  0
    2.3581   -6.4312   -0.0000 C   0  0  0  0  0  0  0  0  0  0  0  0
    2.3462   -3.8349   -0.0000 C   0  0  0  0  0  0  0  0  0  0  0  0
   -7.8842   -4.4066   -0.0000 C   0  0  0  0  0  0  0  0  0  0  0  0
   -6.5860   -6.6694   -0.0000 C   0  0  0  0  0  0  0  0  0  0  0  0
    3.0846   -5.1092   -0.0000 C   0  0  0  0  0  0  0  0  0  0  0  0
   -9.1943   -5.1450   -0.0000 C   0  0  0  0  0  0  0  0  0  0  0  0
   -7.9080   -7.4078   -0.0000 C   0  0  0  0  0  0  0  0  0  0  0  0
    4.5733   -5.0854   -0.0000 N   0  0  0  0  0  0  0  0  0  0  0  0
   -9.2062   -6.6456   -0.0000 C   0  0  0  0  0  0  0  0  0  0  0  0
    5.3117   -3.7635   -0.0000 O   0  0  0  0  0  0  0  0  0  0  0  0
    5.3236   -6.3717   -0.0000 O   0  0  0  0  0  0  0  0  0  0  0  0
  1  2  1  0  0  0  0
  2  3  2  0  0  0  0
  2  4  1  0  0  0  0
  3  5  1  0  0  0  0
  4  6  2  0  0  0  0
  5  7  2  0  0  0  0
  5  8  1  0  0  0  0
  8  9  1  0  0  0  0
  8 10  1  0  0  0  0
  9 11  1  0  0  0  0
 10 12  1  0  0  0  0
 11 13  2  0  0  0  0
 11 14  1  0  0  0  0
 12 15  2  0  0  0  0
 12 16  1  0  0  0  0
 13 17  1  0  0  0  0
 14 18  2  0  0  0  0
 16 19  2  0  0  0  0
 16 20  1  0  0  0  0
 17 21  2  0  0  0  0
 19 22  1  0  0  0  0
 20 23  2  0  0  0  0
 21 24  1  0  0  0  0
 22 25  2  0  0  0  0
 24 26  2  0  0  0  0
 24 27  1  0  0  0  0
  6  7  1  0  0  0  0
 18 21  1  0  0  0  0
 23 25  1  0  0  0  0
M  CHG  2  24   1  27  -1
M  END
>  <MolRegNo>
645199

>  <m>
=

>  <Value>
63

>  <Unit>
nM

>  <Type>
Ki

>  <pValue>
7.2

>  <Ligand Efficiency>
0.36

>  <Binding Efficiency>
19.76

>  <Surface Efficiency>
9.97

>  <Assay Index>
482945

>  <Assay Category>


>  <Assay Organism>
Homo sapiens

>  <Target ID>
56

>  <Target Name>
Androgen Receptor

>  <Target Organism>
Homo sapiens

>  <Target Description>
Target is a single protein chain

>  <Sequence Accession>
P10275

>  <Reference>
Bioorg Med Chem 18 (12), 4255-4268 (2010)

>  <Pubmed ID>
20510622

>  <DOI>
10.1016/j.bmc.2010.04.092

$$$$
645200
Actelion Java MolfileCreator 1.0

 28 30  0  0  0  0  0  0  0  0999 V2000
    0.0000   -0.0000   -0.0000 F   0  0  0  0  0  0  0  0  0  0  0  0
   -1.3096   -0.7382   -0.0000 C   0  0  0  0  0  0  0  0  0  0  0  0
   -1.3216   -2.2264   -0.0000 C   0  0  0  0  0  0  0  0  0  0  0  0
   -2.6312    0.0238   -0.0000 C   0  0  0  0  0  0  0  0  0  0  0  0
   -2.6312   -2.9646   -0.0000 C   0  0  0  0  0  0  0  0  0  0  0  0
   -3.9409   -0.7263   -0.0000 C   0  0  0  0  0  0  0  0  0  0  0  0
   -3.9409   -2.2145   -0.0000 C   0  0  0  0  0  0  0  0  0  0  0  0
   -2.6431   -4.4528   -0.0000 C   0  0  0  0  0  0  0  0  0  0  0  0
   -1.3573   -5.1910   -0.0000 N   0  0  0  0  0  0  0  0  0  0  0  0
   -3.9528   -5.1910   -0.0000 C   0  0  0  0  0  0  0  0  0  0  0  0
    0.1310   -5.1672   -0.0000 C   0  0  0  0  0  0  0  0  0  0  0  0
   -5.2624   -4.4290   -0.0000 C   0  0  0  0  0  0  0  0  0  0  0  0
    0.8691   -6.4530   -0.0000 C   0  0  0  0  0  0  0  0  0  0  0  0
    0.8572   -3.8575   -0.0000 C   0  0  0  0  0  0  0  0  0  0  0  0
   -5.2743   -2.9169   -0.0000 O   0  0  0  0  0  0  0  0  0  0  0  0
   -6.5721   -5.1672   -0.0000 C   0  0  0  0  0  0  0  0  0  0  0  0
    2.3574   -6.4292   -0.0000 C   0  0  0  0  0  0  0  0  0  0  0  0
    2.3455   -3.8337   -0.0000 C   0  0  0  0  0  0  0  0  0  0  0  0
   -6.5840   -6.6673   -0.0000 C   0  0  0  0  0  0  0  0  0  0  0  0
   -7.8817   -4.4052   -0.0000 C   0  0  0  0  0  0  0  0  0  0  0  0
    3.0836   -5.1076   -0.0000 C   0  0  0  0  0  0  0  0  0  0  0  0
   -7.9055   -7.4055   -0.0000 C   0  0  0  0  0  0  0  0  0  0  0  0
   -9.1914   -5.1433   -0.0000 C   0  0  0  0  0  0  0  0  0  0  0  0
    4.5719   -5.0838   -0.0000 N   0  0  0  0  0  0  0  0  0  0  0  0
   -9.2152   -6.6435   -0.0000 C   0  0  0  0  0  0  0  0  0  0  0  0
    5.3100   -3.7623   -0.0000 O   0  0  0  0  0  0  0  0  0  0  0  0
    5.3219   -6.3697   -0.0000 O   0  0  0  0  0  0  0  0  0  0  0  0
  -10.5248   -7.3817   -0.0000 F   0  0  0  0  0  0  0  0  0  0  0  0
  1  2  1  0  0  0  0
  2  3  2  0  0  0  0
  2  4  1  0  0  0  0
  3  5  1  0  0  0  0
  4  6  2  0  0  0  0
  5  7  2  0  0  0  0
  5  8  1  0  0  0  0
  8  9  1  0  0  0  0
  8 10  1  0  0  0  0
  9 11  1  0  0  0  0
 10 12  1  0  0  0  0
 11 13  2  0  0  0  0
 11 14  1  0  0  0  0
 12 15  2  0  0  0  0
 12 16  1  0  0  0  0
 13 17  1  0  0  0  0
 14 18  2  0  0  0  0
 16 19  2  0  0  0  0
 16 20  1  0  0  0  0
 17 21  2  0  0  0  0
 19 22  1  0  0  0  0
 20 23  2  0  0  0  0
 21 24  1  0  0  0  0
 22 25  2  0  0  0  0
 24 26  2  0  0  0  0
 24 27  1  0  0  0  0
 25 28  1  0  0  0  0
  6  7  1  0  0  0  0
 18 21  1  0  0  0  0
 23 25  1  0  0  0  0
M  CHG  2  24   1  27  -1
M  END
>  <MolRegNo>
645200

>  <m>
=

>  <Value>
30

>  <Unit>
nM

>  <Type>
Ki

>  <pValue>
7.52

>  <Ligand Efficiency>
0.37

>  <Binding Efficiency>
19.67

>  <Surface Efficiency>
10.41

>  <Assay Index>
482945

>  <Assay Category>


>  <Assay Organism>
Homo sapiens

>  <Target ID>
56

>  <Target Name>
Androgen Receptor

>  <Target Organism>
Homo sapiens

>  <Target Description>
Target is a single protein chain

>  <Sequence Accession>
P10275

>  <Reference>
Bioorg Med Chem 18 (12), 4255-4268 (2010)

>  <Pubmed ID>
20510622

>  <DOI>
10.1016/j.bmc.2010.04.092

$$$$
645231
Actelion Java MolfileCreator 1.0

 28 30  0  0  0  0  0  0  0  0999 V2000
    0.0000   -0.0000   -0.0000 Cl  0  0  0  0  0  0  0  0  0  0  0  0
    1.2869    0.7626   -0.0000 C   0  0  0  0  0  0  0  0  0  0  0  0
    2.5738    0.0238   -0.0000 C   0  0  0  0  0  0  0  0  0  0  0  0
    1.2750    2.2878   -0.0000 C   0  0  0  0  0  0  0  0  0  0  0  0
    3.8727    0.7864   -0.0000 C   0  0  0  0  0  0  0  0  0  0  0  0
    2.5619    3.0505   -0.0000 C   0  0  0  0  0  0  0  0  0  0  0  0
    3.8607    2.3117   -0.0000 C   0  0  0  0  0  0  0  0  0  0  0  0
    5.1477    3.0743   -0.0000 C   0  0  0  0  0  0  0  0  0  0  0  0
    5.1357    4.5876   -0.0000 O   0  0  0  0  0  0  0  0  0  0  0  0
    6.4346    2.3355   -0.0000 C   0  0  0  0  0  0  0  0  0  0  0  0
    7.7215    3.0981   -0.0000 C   0  0  0  0  0  0  0  0  0  0  0  0
    9.0084    2.3593   -0.0000 N   0  0  0  0  0  0  0  0  0  0  0  0
    7.7096    4.6114   -0.0000 C   0  0  0  0  0  0  0  0  0  0  0  0
   10.4979    2.3832   -0.0000 C   0  0  0  0  0  0  0  0  0  0  0  0
    8.9965    5.3741   -0.0000 C   0  0  0  0  0  0  0  0  0  0  0  0
    6.3988    5.3621   -0.0000 C   0  0  0  0  0  0  0  0  0  0  0  0
   11.2367    1.0963   -0.0000 C   0  0  0  0  0  0  0  0  0  0  0  0
   11.2247    3.6939   -0.0000 C   0  0  0  0  0  0  0  0  0  0  0  0
    8.9846    6.8874   -0.0000 C   0  0  0  0  0  0  0  0  0  0  0  0
    6.3750    6.8755   -0.0000 C   0  0  0  0  0  0  0  0  0  0  0  0
   12.7261    1.1201   -0.0000 C   0  0  0  0  0  0  0  0  0  0  0  0
   12.7142    3.7178   -0.0000 C   0  0  0  0  0  0  0  0  0  0  0  0
   10.2715    7.6500   -0.0000 F   0  0  0  0  0  0  0  0  0  0  0  0
    7.6619    7.6500   -0.0000 C   0  0  0  0  0  0  0  0  0  0  0  0
   13.4530    2.4428   -0.0000 C   0  0  0  0  0  0  0  0  0  0  0  0
   14.9425    2.4666   -0.0000 N   0  0  0  0  0  0  0  0  0  0  0  0
   15.6813    3.7892   -0.0000 O   0  0  0  0  0  0  0  0  0  0  0  0
   15.6932    1.1797   -0.0000 O   0  0  0  0  0  0  0  0  0  0  0  0
  1  2  1  0  0  0  0
  2  3  2  0  0  0  0
  2  4  1  0  0  0  0
  3  5  1  0  0  0  0
  4  6  2  0  0  0  0
  5  7  2  0  0  0  0
  7  8  1  0  0  0  0
  8  9  2  0  0  0  0
  8 10  1  0  0  0  0
 10 11  1  0  0  0  0
 11 12  1  0  0  0  0
 11 13  1  0  0  0  0
 12 14  1  0  0  0  0
 13 15  2  0  0  0  0
 13 16  1  0  0  0  0
 14 17  2  0  0  0  0
 14 18  1  0  0  0  0
 15 19  1  0  0  0  0
 16 20  2  0  0  0  0
 17 21  1  0  0  0  0
 18 22  2  0  0  0  0
 19 23  1  0  0  0  0
 19 24  2  0  0  0  0
 21 25  2  0  0  0  0
 25 26  1  0  0  0  0
 26 27  2  0  0  0  0
 26 28  1  0  0  0  0
  6  7  1  0  0  0  0
 20 24  1  0  0  0  0
 22 25  1  0  0  0  0
M  CHG  2  26   1  28  -1
M  END
>  <MolRegNo>
645231

>  <m>
=

>  <Value>
18

>  <Unit>
nM

>  <Type>
Ki

>  <pValue>
7.75

>  <Ligand Efficiency>
0.38

>  <Binding Efficiency>
19.42

>  <Surface Efficiency>
10.72

>  <Assay Index>
482945

>  <Assay Category>


>  <Assay Organism>
Homo sapiens

>  <Target ID>
56

>  <Target Name>
Androgen Receptor

>  <Target Organism>
Homo sapiens

>  <Target Description>
Target is a single protein chain

>  <Sequence Accession>
P10275

>  <Reference>
Bioorg Med Chem 18 (12), 4255-4268 (2010)

>  <Pubmed ID>
20510622

>  <DOI>
10.1016/j.bmc.2010.04.092

$$$$
645232
Actelion Java MolfileCreator 1.0

 28 30  0  0  0  0  0  0  0  0999 V2000
    0.0000   -0.0000   -0.0000 Br  0  0  0  0  0  0  0  0  0  0  0  0
    1.2869    0.7626   -0.0000 C   0  0  0  0  0  0  0  0  0  0  0  0
    2.5738    0.0238   -0.0000 C   0  0  0  0  0  0  0  0  0  0  0  0
    1.2750    2.2878   -0.0000 C   0  0  0  0  0  0  0  0  0  0  0  0
    3.8727    0.7864   -0.0000 C   0  0  0  0  0  0  0  0  0  0  0  0
    2.5619    3.0505   -0.0000 C   0  0  0  0  0  0  0  0  0  0  0  0
    3.8607    2.3117   -0.0000 C   0  0  0  0  0  0  0  0  0  0  0  0
    5.1477    3.0743   -0.0000 C   0  0  0  0  0  0  0  0  0  0  0  0
    5.1357    4.5876   -0.0000 O   0  0  0  0  0  0  0  0  0  0  0  0
    6.4346    2.3355   -0.0000 C   0  0  0  0  0  0  0  0  0  0  0  0
    7.7215    3.0981   -0.0000 C   0  0  0  0  0  0  0  0  0  0  0  0
    9.0084    2.3593   -0.0000 N   0  0  0  0  0  0  0  0  0  0  0  0
    7.7096    4.6114   -0.0000 C   0  0  0  0  0  0  0  0  0  0  0  0
   10.4979    2.3832   -0.0000 C   0  0  0  0  0  0  0  0  0  0  0  0
    8.9965    5.3741   -0.0000 C   0  0  0  0  0  0  0  0  0  0  0  0
    6.3988    5.3621   -0.0000 C   0  0  0  0  0  0  0  0  0  0  0  0
   11.2367    1.0963   -0.0000 C   0  0  0  0  0  0  0  0  0  0  0  0
   11.2247    3.6939   -0.0000 C   0  0  0  0  0  0  0  0  0  0  0  0
    8.9846    6.8874   -0.0000 C   0  0  0  0  0  0  0  0  0  0  0  0
    6.3750    6.8755   -0.0000 C   0  0  0  0  0  0  0  0  0  0  0  0
   12.7261    1.1201   -0.0000 C   0  0  0  0  0  0  0  0  0  0  0  0
   12.7142    3.7178   -0.0000 C   0  0  0  0  0  0  0  0  0  0  0  0
   10.2715    7.6500   -0.0000 F   0  0  0  0  0  0  0  0  0  0  0  0
    7.6619    7.6500   -0.0000 C   0  0  0  0  0  0  0  0  0  0  0  0
   13.4530    2.4428   -0.0000 C   0  0  0  0  0  0  0  0  0  0  0  0
   14.9425    2.4666   -0.0000 N   0  0  0  0  0  0  0  0  0  0  0  0
   15.6813    3.7892   -0.0000 O   0  0  0  0  0  0  0  0  0  0  0  0
   15.6932    1.1797   -0.0000 O   0  0  0  0  0  0  0  0  0  0  0  0
  1  2  1  0  0  0  0
  2  3  2  0  0  0  0
  2  4  1  0  0  0  0
  3  5  1  0  0  0  0
  4  6  2  0  0  0  0
  5  7  2  0  0  0  0
  7  8  1  0  0  0  0
  8  9  2  0  0  0  0
  8 10  1  0  0  0  0
 10 11  1  0  0  0  0
 11 12  1  0  0  0  0
 11 13  1  0  0  0  0
 12 14  1  0  0  0  0
 13 15  2  0  0  0  0
 13 16  1  0  0  0  0
 14 17  2  0  0  0  0
 14 18  1  0  0  0  0
 15 19  1  0  0  0  0
 16 20  2  0  0  0  0
 17 21  1  0  0  0  0
 18 22  2  0  0  0  0
 19 23  1  0  0  0  0
 19 24  2  0  0  0  0
 21 25  2  0  0  0  0
 25 26  1  0  0  0  0
 26 27  2  0  0  0  0
 26 28  1  0  0  0  0
  6  7  1  0  0  0  0
 20 24  1  0  0  0  0
 22 25  1  0  0  0  0
M  CHG  2  26   1  28  -1
M  END
>  <MolRegNo>
645232

>  <m>
=

>  <Value>
39

>  <Unit>
nM

>  <Type>
Ki

>  <pValue>
7.41

>  <Ligand Efficiency>
0.36

>  <Binding Efficiency>
16.71

>  <Surface Efficiency>
10.26

>  <Assay Index>
482945

>  <Assay Category>


>  <Assay Organism>
Homo sapiens

>  <Target ID>
56

>  <Target Name>
Androgen Receptor

>  <Target Organism>
Homo sapiens

>  <Target Description>
Target is a single protein chain

>  <Sequence Accession>
P10275

>  <Reference>
Bioorg Med Chem 18 (12), 4255-4268 (2010)

>  <Pubmed ID>
20510622

>  <DOI>
10.1016/j.bmc.2010.04.092

$$$$
645233
Actelion Java MolfileCreator 1.0

 33 36  0  0  0  0  0  0  0  0999 V2000
    0.0000   -0.0000   -0.0000 F   0  0  0  0  0  0  0  0  0  0  0  0
   -1.3093   -0.7380   -0.0000 C   0  0  0  0  0  0  0  0  0  0  0  0
   -1.3212   -2.2258   -0.0000 C   0  0  0  0  0  0  0  0  0  0  0  0
   -2.6305    0.0238   -0.0000 C   0  0  0  0  0  0  0  0  0  0  0  0
   -2.6305   -2.9638   -0.0000 C   0  0  0  0  0  0  0  0  0  0  0  0
   -3.9399   -0.7261   -0.0000 C   0  0  0  0  0  0  0  0  0  0  0  0
   -3.9399   -2.2139   -0.0000 C   0  0  0  0  0  0  0  0  0  0  0  0
   -2.6424   -4.4517   -0.0000 C   0  0  0  0  0  0  0  0  0  0  0  0
   -1.3569   -5.1897   -0.0000 N   0  0  0  0  0  0  0  0  0  0  0  0
   -3.9518   -5.1897   -0.0000 C   0  0  0  0  0  0  0  0  0  0  0  0
    0.1309   -5.1659   -0.0000 C   0  0  0  0  0  0  0  0  0  0  0  0
   -5.2611   -4.4279   -0.0000 C   0  0  0  0  0  0  0  0  0  0  0  0
    0.8689   -6.4514   -0.0000 C   0  0  0  0  0  0  0  0  0  0  0  0
    0.8570   -3.8565   -0.0000 C   0  0  0  0  0  0  0  0  0  0  0  0
   -5.2730   -2.9162   -0.0000 O   0  0  0  0  0  0  0  0  0  0  0  0
   -6.5704   -5.1659   -0.0000 C   0  0  0  0  0  0  0  0  0  0  0  0
    2.3568   -6.4276   -0.0000 C   0  0  0  0  0  0  0  0  0  0  0  0
    2.3449   -3.8327   -0.0000 C   0  0  0  0  0  0  0  0  0  0  0  0
   -6.5823   -6.6656   -0.0000 C   0  0  0  0  0  0  0  0  0  0  0  0
   -7.8797   -4.4041   -0.0000 C   0  0  0  0  0  0  0  0  0  0  0  0
    3.0828   -5.1063   -0.0000 C   0  0  0  0  0  0  0  0  0  0  0  0
   -7.9035   -7.4036   -0.0000 C   0  0  0  0  0  0  0  0  0  0  0  0
   -9.1890   -5.1420   -0.0000 C   0  0  0  0  0  0  0  0  0  0  0  0
    4.5707   -5.0825   -0.0000 N   0  0  0  0  0  0  0  0  0  0  0  0
   -9.2128   -6.6418   -0.0000 C   0  0  0  0  0  0  0  0  0  0  0  0
    5.3087   -3.7613   -0.0000 O   0  0  0  0  0  0  0  0  0  0  0  0
    5.3206   -6.3680   -0.0000 O   0  0  0  0  0  0  0  0  0  0  0  0
  -10.5222   -7.3798   -0.0000 C   0  0  0  0  0  0  0  0  0  0  0  0
  -11.8315   -6.6180   -0.0000 C   0  0  0  0  0  0  0  0  0  0  0  0
  -10.5341   -8.8677   -0.0000 C   0  0  0  0  0  0  0  0  0  0  0  0
  -13.1408   -7.3560   -0.0000 C   0  0  0  0  0  0  0  0  0  0  0  0
  -11.8434   -9.6056   -0.0000 C   0  0  0  0  0  0  0  0  0  0  0  0
  -13.1527   -8.8438   -0.0000 C   0  0  0  0  0  0  0  0  0  0  0  0
  1  2  1  0  0  0  0
  2  3  2  0  0  0  0
  2  4  1  0  0  0  0
  3  5  1  0  0  0  0
  4  6  2  0  0  0  0
  5  7  2  0  0  0  0
  5  8  1  0  0  0  0
  8  9  1  0  0  0  0
  8 10  1  0  0  0  0
  9 11  1  0  0  0  0
 10 12  1  0  0  0  0
 11 13  2  0  0  0  0
 11 14  1  0  0  0  0
 12 15  2  0  0  0  0
 12 16  1  0  0  0  0
 13 17  1  0  0  0  0
 14 18  2  0  0  0  0
 16 19  2  0  0  0  0
 16 20  1  0  0  0  0
 17 21  2  0  0  0  0
 19 22  1  0  0  0  0
 20 23  2  0  0  0  0
 21 24  1  0  0  0  0
 22 25  2  0  0  0  0
 24 26  2  0  0  0  0
 24 27  1  0  0  0  0
 25 28  1  0  0  0  0
 28 29  2  0  0  0  0
 28 30  1  0  0  0  0
 29 31  1  0  0  0  0
 30 32  2  0  0  0  0
 31 33  2  0  0  0  0
  6  7  1  0  0  0  0
 18 21  1  0  0  0  0
 23 25  1  0  0  0  0
 32 33  1  0  0  0  0
M  CHG  2  24   1  27  -1
M  END
>  <MolRegNo>
645233

>  <m>
=

>  <Value>
417

>  <Unit>
nM

>  <Type>
Ki

>  <pValue>
6.38

>  <Ligand Efficiency>
0.26

>  <Binding Efficiency>
14.48

>  <Surface Efficiency>
8.83

>  <Assay Index>
482945

>  <Assay Category>


>  <Assay Organism>
Homo sapiens

>  <Target ID>
56

>  <Target Name>
Androgen Receptor

>  <Target Organism>
Homo sapiens

>  <Target Description>
Target is a single protein chain

>  <Sequence Accession>
P10275

>  <Reference>
Bioorg Med Chem 18 (12), 4255-4268 (2010)

>  <Pubmed ID>
20510622

>  <DOI>
10.1016/j.bmc.2010.04.092

$$$$
645234
Actelion Java MolfileCreator 1.0

 33 36  0  0  0  0  0  0  0  0999 V2000
    0.0000   -0.0000   -0.0000 F   0  0  0  0  0  0  0  0  0  0  0  0
   -1.3097   -0.7382   -0.0000 C   0  0  0  0  0  0  0  0  0  0  0  0
   -1.3216   -2.2265   -0.0000 C   0  0  0  0  0  0  0  0  0  0  0  0
   -2.6313    0.0238   -0.0000 C   0  0  0  0  0  0  0  0  0  0  0  0
   -2.6313   -2.9647   -0.0000 C   0  0  0  0  0  0  0  0  0  0  0  0
   -3.9410   -0.7263   -0.0000 C   0  0  0  0  0  0  0  0  0  0  0  0
   -3.9410   -2.2146   -0.0000 C   0  0  0  0  0  0  0  0  0  0  0  0
   -2.6432   -4.4530   -0.0000 C   0  0  0  0  0  0  0  0  0  0  0  0
   -1.3573   -5.1912   -0.0000 N   0  0  0  0  0  0  0  0  0  0  0  0
   -3.9529   -5.1912   -0.0000 C   0  0  0  0  0  0  0  0  0  0  0  0
    0.1310   -5.1674   -0.0000 C   0  0  0  0  0  0  0  0  0  0  0  0
   -5.2627   -4.4292   -0.0000 C   0  0  0  0  0  0  0  0  0  0  0  0
    0.8692   -6.4533   -0.0000 C   0  0  0  0  0  0  0  0  0  0  0  0
    0.8573   -3.8577   -0.0000 C   0  0  0  0  0  0  0  0  0  0  0  0
   -5.2746   -2.9171   -0.0000 O   0  0  0  0  0  0  0  0  0  0  0  0
   -6.5724   -5.1674   -0.0000 C   0  0  0  0  0  0  0  0  0  0  0  0
    2.3575   -6.4295   -0.0000 C   0  0  0  0  0  0  0  0  0  0  0  0
    2.3456   -3.8339   -0.0000 C   0  0  0  0  0  0  0  0  0  0  0  0
   -7.8821   -4.4054   -0.0000 C   0  0  0  0  0  0  0  0  0  0  0  0
   -6.5843   -6.6676   -0.0000 C   0  0  0  0  0  0  0  0  0  0  0  0
    3.0838   -5.1079   -0.0000 C   0  0  0  0  0  0  0  0  0  0  0  0
   -9.1918   -5.1436   -0.0000 C   0  0  0  0  0  0  0  0  0  0  0  0
   -7.9059   -7.4058   -0.0000 C   0  0  0  0  0  0  0  0  0  0  0  0
    4.5721   -5.0841   -0.0000 N   0  0  0  0  0  0  0  0  0  0  0  0
   -9.2037   -6.6319   -0.0000 C   0  0  0  0  0  0  0  0  0  0  0  0
    5.3103   -3.7624   -0.0000 O   0  0  0  0  0  0  0  0  0  0  0  0
    5.3222   -6.3700   -0.0000 O   0  0  0  0  0  0  0  0  0  0  0  0
  -10.5134   -7.3701   -0.0000 C   0  0  0  0  0  0  0  0  0  0  0  0
  -11.8231   -6.6081   -0.0000 C   0  0  0  0  0  0  0  0  0  0  0  0
  -10.5253   -8.8584   -0.0000 C   0  0  0  0  0  0  0  0  0  0  0  0
  -13.1328   -7.3463   -0.0000 C   0  0  0  0  0  0  0  0  0  0  0  0
  -11.8350   -9.5966   -0.0000 C   0  0  0  0  0  0  0  0  0  0  0  0
  -13.1447   -8.8346   -0.0000 C   0  0  0  0  0  0  0  0  0  0  0  0
  1  2  1  0  0  0  0
  2  3  2  0  0  0  0
  2  4  1  0  0  0  0
  3  5  1  0  0  0  0
  4  6  2  0  0  0  0
  5  7  2  0  0  0  0
  5  8  1  0  0  0  0
  8  9  1  0  0  0  0
  8 10  1  0  0  0  0
  9 11  1  0  0  0  0
 10 12  1  0  0  0  0
 11 13  2  0  0  0  0
 11 14  1  0  0  0  0
 12 15  2  0  0  0  0
 12 16  1  0  0  0  0
 13 17  1  0  0  0  0
 14 18  2  0  0  0  0
 16 19  2  0  0  0  0
 16 20  1  0  0  0  0
 17 21  2  0  0  0  0
 19 22  1  0  0  0  0
 20 23  2  0  0  0  0
 21 24  1  0  0  0  0
 22 25  2  0  0  0  0
 24 26  2  0  0  0  0
 24 27  1  0  0  0  0
 25 28  1  0  0  0  0
 28 29  1  0  0  0  0
 28 30  1  0  0  0  0
 29 31  1  0  0  0  0
 30 32  1  0  0  0  0
 31 33  1  0  0  0  0
  6  7  1  0  0  0  0
 18 21  1  0  0  0  0
 23 25  1  0  0  0  0
 32 33  1  0  0  0  0
M  CHG  2  24   1  27  -1
M  END
>  <MolRegNo>
645234

>  <m>
=

>  <Value>
1010

>  <Unit>
nM

>  <Type>
Ki

>  <pValue>
6

>  <Ligand Efficiency>
0.25

>  <Binding Efficiency>
13.43

>  <Surface Efficiency>
8.3

>  <Assay Index>
482945

>  <Assay Category>


>  <Assay Organism>
Homo sapiens

>  <Target ID>
56

>  <Target Name>
Androgen Receptor

>  <Target Organism>
Homo sapiens

>  <Target Description>
Target is a single protein chain

>  <Sequence Accession>
P10275

>  <Reference>
Bioorg Med Chem 18 (12), 4255-4268 (2010)

>  <Pubmed ID>
20510622

>  <DOI>
10.1016/j.bmc.2010.04.092

$$$$
644636
Actelion Java MolfileCreator 1.0

 33 36  0  0  0  0  0  0  0  0999 V2000
    0.0000   -0.0000   -0.0000 F   0  0  0  0  0  0  0  0  0  0  0  0
   -1.3093   -0.7380   -0.0000 C   0  0  0  0  0  0  0  0  0  0  0  0
   -1.3212   -2.2258   -0.0000 C   0  0  0  0  0  0  0  0  0  0  0  0
   -2.6305    0.0238   -0.0000 C   0  0  0  0  0  0  0  0  0  0  0  0
   -2.6305   -2.9638   -0.0000 C   0  0  0  0  0  0  0  0  0  0  0  0
   -3.9399   -0.7261   -0.0000 C   0  0  0  0  0  0  0  0  0  0  0  0
   -3.9399   -2.2139   -0.0000 C   0  0  0  0  0  0  0  0  0  0  0  0
   -2.6424   -4.4517   -0.0000 C   0  0  0  0  0  0  0  0  0  0  0  0
   -1.3569   -5.1897   -0.0000 N   0  0  0  0  0  0  0  0  0  0  0  0
   -3.9518   -5.1897   -0.0000 C   0  0  0  0  0  0  0  0  0  0  0  0
    0.1309   -5.1659   -0.0000 C   0  0  0  0  0  0  0  0  0  0  0  0
   -5.2611   -4.4279   -0.0000 C   0  0  0  0  0  0  0  0  0  0  0  0
    0.8689   -6.4514   -0.0000 C   0  0  0  0  0  0  0  0  0  0  0  0
    0.8570   -3.8565   -0.0000 C   0  0  0  0  0  0  0  0  0  0  0  0
   -5.2730   -2.9162   -0.0000 O   0  0  0  0  0  0  0  0  0  0  0  0
   -6.5704   -5.1659   -0.0000 C   0  0  0  0  0  0  0  0  0  0  0  0
    2.3568   -6.4276   -0.0000 C   0  0  0  0  0  0  0  0  0  0  0  0
    2.3449   -3.8327   -0.0000 C   0  0  0  0  0  0  0  0  0  0  0  0
   -6.5823   -6.6656   -0.0000 C   0  0  0  0  0  0  0  0  0  0  0  0
   -7.8797   -4.4041   -0.0000 C   0  0  0  0  0  0  0  0  0  0  0  0
    3.0828   -5.1063   -0.0000 C   0  0  0  0  0  0  0  0  0  0  0  0
   -7.9035   -7.4036   -0.0000 C   0  0  0  0  0  0  0  0  0  0  0  0
   -9.1890   -5.1420   -0.0000 C   0  0  0  0  0  0  0  0  0  0  0  0
    4.5707   -5.0825   -0.0000 N   0  0  0  0  0  0  0  0  0  0  0  0
   -9.2128   -6.6418   -0.0000 C   0  0  0  0  0  0  0  0  0  0  0  0
    5.3087   -3.7613   -0.0000 O   0  0  0  0  0  0  0  0  0  0  0  0
    5.3206   -6.3680   -0.0000 O   0  0  0  0  0  0  0  0  0  0  0  0
  -10.5222   -7.3798   -0.0000 N   0  0  0  0  0  0  0  0  0  0  0  0
  -11.8315   -6.6180   -0.0000 C   0  0  0  0  0  0  0  0  0  0  0  0
  -10.5341   -8.8677   -0.0000 C   0  0  0  0  0  0  0  0  0  0  0  0
  -13.1408   -7.3560   -0.0000 C   0  0  0  0  0  0  0  0  0  0  0  0
  -11.8434   -9.6056   -0.0000 C   0  0  0  0  0  0  0  0  0  0  0  0
  -13.1527   -8.8438   -0.0000 O   0  0  0  0  0  0  0  0  0  0  0  0
  1  2  1  0  0  0  0
  2  3  2  0  0  0  0
  2  4  1  0  0  0  0
  3  5  1  0  0  0  0
  4  6  2  0  0  0  0
  5  7  2  0  0  0  0
  5  8  1  0  0  0  0
  8  9  1  0  0  0  0
  8 10  1  0  0  0  0
  9 11  1  0  0  0  0
 10 12  1  0  0  0  0
 11 13  2  0  0  0  0
 11 14  1  0  0  0  0
 12 15  2  0  0  0  0
 12 16  1  0  0  0  0
 13 17  1  0  0  0  0
 14 18  2  0  0  0  0
 16 19  2  0  0  0  0
 16 20  1  0  0  0  0
 17 21  2  0  0  0  0
 19 22  1  0  0  0  0
 20 23  2  0  0  0  0
 21 24  1  0  0  0  0
 22 25  2  0  0  0  0
 24 26  2  0  0  0  0
 24 27  1  0  0  0  0
 25 28  1  0  0  0  0
 28 29  1  0  0  0  0
 28 30  1  0  0  0  0
 29 31  1  0  0  0  0
 30 32  1  0  0  0  0
 31 33  1  0  0  0  0
  6  7  1  0  0  0  0
 18 21  1  0  0  0  0
 23 25  1  0  0  0  0
 32 33  1  0  0  0  0
M  CHG  2  24   1  27  -1
M  END
>  <MolRegNo>
644636

>  <m>
=

>  <Value>
283

>  <Unit>
nM

>  <Type>
Ki

>  <pValue>
6.55

>  <Ligand Efficiency>
0.27

>  <Binding Efficiency>
14.57

>  <Surface Efficiency>
7.73

>  <Assay Index>
482945

>  <Assay Category>


>  <Assay Organism>
Homo sapiens

>  <Target ID>
56

>  <Target Name>
Androgen Receptor

>  <Target Organism>
Homo sapiens

>  <Target Description>
Target is a single protein chain

>  <Sequence Accession>
P10275

>  <Reference>
Bioorg Med Chem 18 (12), 4255-4268 (2010)

>  <Pubmed ID>
20510622

>  <DOI>
10.1016/j.bmc.2010.04.092

$$$$
644637
Actelion Java MolfileCreator 1.0

 28 30  0  0  0  0  0  0  0  0999 V2000
    0.0000   -0.0000   -0.0000 Cl  0  0  0  0  0  0  0  0  0  0  0  0
   -0.0119    1.5100   -0.0000 C   0  0  0  0  0  0  0  0  0  0  0  0
    1.2841    2.2709   -0.0000 C   0  0  0  0  0  0  0  0  0  0  0  0
   -1.3197    2.2709   -0.0000 C   0  0  0  0  0  0  0  0  0  0  0  0
    1.2722    3.7927   -0.0000 C   0  0  0  0  0  0  0  0  0  0  0  0
   -1.3316    3.7927   -0.0000 C   0  0  0  0  0  0  0  0  0  0  0  0
    2.5562    4.5536   -0.0000 C   0  0  0  0  0  0  0  0  0  0  0  0
   -0.0357    4.5536   -0.0000 C   0  0  0  0  0  0  0  0  0  0  0  0
    2.5443    6.0636   -0.0000 O   0  0  0  0  0  0  0  0  0  0  0  0
    3.8403    3.8165   -0.0000 C   0  0  0  0  0  0  0  0  0  0  0  0
    5.1243    4.5774   -0.0000 C   0  0  0  0  0  0  0  0  0  0  0  0
    6.4084    3.8403   -0.0000 N   0  0  0  0  0  0  0  0  0  0  0  0
    5.1125    6.0874   -0.0000 C   0  0  0  0  0  0  0  0  0  0  0  0
    7.8946    3.8641   -0.0000 C   0  0  0  0  0  0  0  0  0  0  0  0
    6.3965    6.8483   -0.0000 C   0  0  0  0  0  0  0  0  0  0  0  0
    3.8046    6.8364   -0.0000 C   0  0  0  0  0  0  0  0  0  0  0  0
    8.6317    2.5800   -0.0000 C   0  0  0  0  0  0  0  0  0  0  0  0
    8.6198    5.1719   -0.0000 C   0  0  0  0  0  0  0  0  0  0  0  0
    6.3846    8.3583   -0.0000 C   0  0  0  0  0  0  0  0  0  0  0  0
    3.7808    8.3464   -0.0000 C   0  0  0  0  0  0  0  0  0  0  0  0
   10.1179    2.6038   -0.0000 C   0  0  0  0  0  0  0  0  0  0  0  0
   10.1060    5.1957   -0.0000 C   0  0  0  0  0  0  0  0  0  0  0  0
    5.0649    9.1192   -0.0000 C   0  0  0  0  0  0  0  0  0  0  0  0
   10.8432    3.9235   -0.0000 C   0  0  0  0  0  0  0  0  0  0  0  0
    5.0411   10.6291   -0.0000 F   0  0  0  0  0  0  0  0  0  0  0  0
   12.3293    3.9473   -0.0000 N   0  0  0  0  0  0  0  0  0  0  0  0
   13.0665    5.2670   -0.0000 O   0  0  0  0  0  0  0  0  0  0  0  0
   13.0784    2.6632   -0.0000 O   0  0  0  0  0  0  0  0  0  0  0  0
  1  2  1  0  0  0  0
  2  3  2  0  0  0  0
  2  4  1  0  0  0  0
  3  5  1  0  0  0  0
  4  6  2  0  0  0  0
  5  7  1  0  0  0  0
  5  8  2  0  0  0  0
  7  9  2  0  0  0  0
  7 10  1  0  0  0  0
 10 11  1  0  0  0  0
 11 12  1  0  0  0  0
 11 13  1  0  0  0  0
 12 14  1  0  0  0  0
 13 15  2  0  0  0  0
 13 16  1  0  0  0  0
 14 17  2  0  0  0  0
 14 18  1  0  0  0  0
 15 19  1  0  0  0  0
 16 20  2  0  0  0  0
 17 21  1  0  0  0  0
 18 22  2  0  0  0  0
 19 23  2  0  0  0  0
 21 24  2  0  0  0  0
 23 25  1  0  0  0  0
 24 26  1  0  0  0  0
 26 27  2  0  0  0  0
 26 28  1  0  0  0  0
  6  8  1  0  0  0  0
 20 23  1  0  0  0  0
 22 24  1  0  0  0  0
M  CHG  2  26   1  28  -1
M  END
>  <MolRegNo>
644637

>  <m>
=

>  <Value>
493

>  <Unit>
nM

>  <Type>
Ki

>  <pValue>
6.31

>  <Ligand Efficiency>
0.31

>  <Binding Efficiency>
15.81

>  <Surface Efficiency>
8.73

>  <Assay Index>
482945

>  <Assay Category>


>  <Assay Organism>
Homo sapiens

>  <Target ID>
56

>  <Target Name>
Androgen Receptor

>  <Target Organism>
Homo sapiens

>  <Target Description>
Target is a single protein chain

>  <Sequence Accession>
P10275

>  <Reference>
Bioorg Med Chem 18 (12), 4255-4268 (2010)

>  <Pubmed ID>
20510622

>  <DOI>
10.1016/j.bmc.2010.04.092

$$$$
644639
Actelion Java MolfileCreator 1.0

 31 33  0  0  0  0  0  0  0  0999 V2000
    0.0000   -0.0000   -0.0000 F   0  0  0  0  0  0  0  0  0  0  0  0
   -0.0119    1.5085   -0.0000 C   0  0  0  0  0  0  0  0  0  0  0  0
    1.2828    2.2687   -0.0000 C   0  0  0  0  0  0  0  0  0  0  0  0
   -1.3185    2.2687   -0.0000 C   0  0  0  0  0  0  0  0  0  0  0  0
    1.2709    3.7891   -0.0000 C   0  0  0  0  0  0  0  0  0  0  0  0
   -1.3185    3.7891   -0.0000 C   0  0  0  0  0  0  0  0  0  0  0  0
    2.5538    4.5493   -0.0000 C   0  0  0  0  0  0  0  0  0  0  0  0
   -0.0356    4.5493   -0.0000 C   0  0  0  0  0  0  0  0  0  0  0  0
    2.5419    6.0578   -0.0000 O   0  0  0  0  0  0  0  0  0  0  0  0
    3.8366    3.8128   -0.0000 C   0  0  0  0  0  0  0  0  0  0  0  0
    5.1194    4.5730   -0.0000 C   0  0  0  0  0  0  0  0  0  0  0  0
    6.4022    3.8366   -0.0000 N   0  0  0  0  0  0  0  0  0  0  0  0
    5.1075    6.0815   -0.0000 C   0  0  0  0  0  0  0  0  0  0  0  0
    7.8870    3.8485   -0.0000 C   0  0  0  0  0  0  0  0  0  0  0  0
    6.4022    6.8417   -0.0000 C   0  0  0  0  0  0  0  0  0  0  0  0
    3.8009    6.8298   -0.0000 C   0  0  0  0  0  0  0  0  0  0  0  0
    8.6234    2.5656   -0.0000 C   0  0  0  0  0  0  0  0  0  0  0  0
    8.6115    5.1550   -0.0000 C   0  0  0  0  0  0  0  0  0  0  0  0
    6.3903    8.3502   -0.0000 C   0  0  0  0  0  0  0  0  0  0  0  0
    3.7772    8.3383   -0.0000 C   0  0  0  0  0  0  0  0  0  0  0  0
   10.1082    2.5775   -0.0000 C   0  0  0  0  0  0  0  0  0  0  0  0
   10.0963    5.1788   -0.0000 C   0  0  0  0  0  0  0  0  0  0  0  0
    5.0838    9.1104   -0.0000 C   0  0  0  0  0  0  0  0  0  0  0  0
   10.8446    3.8960   -0.0000 C   0  0  0  0  0  0  0  0  0  0  0  0
    5.0719   10.6189   -0.0000 C   0  0  0  0  0  0  0  0  0  0  0  0
   12.3293    3.9197   -0.0000 N   0  0  0  0  0  0  0  0  0  0  0  0
    6.3547   11.3791   -0.0000 F   0  0  0  0  0  0  0  0  0  0  0  0
    3.7653   11.3791   -0.0000 F   0  0  0  0  0  0  0  0  0  0  0  0
    5.0363   12.1274   -0.0000 F   0  0  0  0  0  0  0  0  0  0  0  0
   13.0658    5.2382   -0.0000 O   0  0  0  0  0  0  0  0  0  0  0  0
   13.0776    2.6369   -0.0000 O   0  0  0  0  0  0  0  0  0  0  0  0
  1  2  1  0  0  0  0
  2  3  2  0  0  0  0
  2  4  1  0  0  0  0
  3  5  1  0  0  0  0
  4  6  2  0  0  0  0
  5  7  1  0  0  0  0
  5  8  2  0  0  0  0
  7  9  2  0  0  0  0
  7 10  1  0  0  0  0
 10 11  1  0  0  0  0
 11 12  1  0  0  0  0
 11 13  1  0  0  0  0
 12 14  1  0  0  0  0
 13 15  2  0  0  0  0
 13 16  1  0  0  0  0
 14 17  2  0  0  0  0
 14 18  1  0  0  0  0
 15 19  1  0  0  0  0
 16 20  2  0  0  0  0
 17 21  1  0  0  0  0
 18 22  2  0  0  0  0
 19 23  2  0  0  0  0
 21 24  2  0  0  0  0
 23 25  1  0  0  0  0
 24 26  1  0  0  0  0
 25 27  1  0  0  0  0
 25 28  1  0  0  0  0
 25 29  1  0  0  0  0
 26 30  2  0  0  0  0
 26 31  1  0  0  0  0
  6  8  1  0  0  0  0
 20 23  1  0  0  0  0
 22 24  1  0  0  0  0
M  CHG  2  26   1  31  -1
M  END
>  <MolRegNo>
644639

>  <m>
=

>  <Value>
1314

>  <Unit>
nM

>  <Type>
Ki

>  <pValue>
5.88

>  <Ligand Efficiency>
0.26

>  <Binding Efficiency>
13.6

>  <Surface Efficiency>
8.14

>  <Assay Index>
482945

>  <Assay Category>


>  <Assay Organism>
Homo sapiens

>  <Target ID>
56

>  <Target Name>
Androgen Receptor

>  <Target Organism>
Homo sapiens

>  <Target Description>
Target is a single protein chain

>  <Sequence Accession>
P10275

>  <Reference>
Bioorg Med Chem 18 (12), 4255-4268 (2010)

>  <Pubmed ID>
20510622

>  <DOI>
10.1016/j.bmc.2010.04.092

$$$$
644670
Actelion Java MolfileCreator 1.0

 32 34  0  0  0  0  0  0  0  0999 V2000
    0.0000   -0.0000   -0.0000 F   0  0  0  0  0  0  0  0  0  0  0  0
   -1.3110   -0.7389   -0.0000 C   0  0  0  0  0  0  0  0  0  0  0  0
   -2.6221    0.0238   -0.0000 F   0  0  0  0  0  0  0  0  0  0  0  0
   -1.3468    0.7747   -0.0000 F   0  0  0  0  0  0  0  0  0  0  0  0
   -1.3229   -2.2287   -0.0000 C   0  0  0  0  0  0  0  0  0  0  0  0
   -0.0358   -2.9677   -0.0000 C   0  0  0  0  0  0  0  0  0  0  0  0
   -2.6459   -2.9796   -0.0000 C   0  0  0  0  0  0  0  0  0  0  0  0
   -0.0477   -4.4575   -0.0000 C   0  0  0  0  0  0  0  0  0  0  0  0
   -2.6459   -4.4694   -0.0000 C   0  0  0  0  0  0  0  0  0  0  0  0
   -1.3706   -5.1845   -0.0000 C   0  0  0  0  0  0  0  0  0  0  0  0
   -1.3825   -6.6743   -0.0000 C   0  0  0  0  0  0  0  0  0  0  0  0
   -0.0953   -7.4133   -0.0000 N   0  0  0  0  0  0  0  0  0  0  0  0
   -2.6936   -7.4133   -0.0000 C   0  0  0  0  0  0  0  0  0  0  0  0
    1.3945   -7.4013   -0.0000 C   0  0  0  0  0  0  0  0  0  0  0  0
   -4.0046   -6.6505   -0.0000 C   0  0  0  0  0  0  0  0  0  0  0  0
    2.1334   -8.6885   -0.0000 C   0  0  0  0  0  0  0  0  0  0  0  0
    2.1215   -6.0903   -0.0000 C   0  0  0  0  0  0  0  0  0  0  0  0
   -4.0165   -5.1368   -0.0000 O   0  0  0  0  0  0  0  0  0  0  0  0
   -5.3156   -7.3894   -0.0000 C   0  0  0  0  0  0  0  0  0  0  0  0
    3.6232   -8.6766   -0.0000 C   0  0  0  0  0  0  0  0  0  0  0  0
    3.6113   -6.0665   -0.0000 C   0  0  0  0  0  0  0  0  0  0  0  0
   -5.3275   -8.8911   -0.0000 C   0  0  0  0  0  0  0  0  0  0  0  0
   -6.6266   -6.6266   -0.0000 C   0  0  0  0  0  0  0  0  0  0  0  0
    4.3621   -7.3537   -0.0000 C   0  0  0  0  0  0  0  0  0  0  0  0
   -6.6505   -9.6301   -0.0000 C   0  0  0  0  0  0  0  0  0  0  0  0
   -7.9377   -7.3656   -0.0000 C   0  0  0  0  0  0  0  0  0  0  0  0
    5.8519   -7.3298   -0.0000 N   0  0  0  0  0  0  0  0  0  0  0  0
   -6.6624  -11.1199   -0.0000 C   0  0  0  0  0  0  0  0  0  0  0  0
   -7.9615   -8.8673   -0.0000 C   0  0  0  0  0  0  0  0  0  0  0  0
    6.5909   -6.0069   -0.0000 O   0  0  0  0  0  0  0  0  0  0  0  0
    6.6028   -8.6170   -0.0000 O   0  0  0  0  0  0  0  0  0  0  0  0
   -6.6862  -12.6216   -0.0000 N   0  0  0  0  0  0  0  0  0  0  0  0
  1  2  1  0  0  0  0
  2  3  1  0  0  0  0
  2  4  1  0  0  0  0
  2  5  1  0  0  0  0
  5  6  2  0  0  0  0
  5  7  1  0  0  0  0
  6  8  1  0  0  0  0
  7  9  2  0  0  0  0
  8 10  2  0  0  0  0
 10 11  1  0  0  0  0
 11 12  1  0  0  0  0
 11 13  1  0  0  0  0
 12 14  1  0  0  0  0
 13 15  1  0  0  0  0
 14 16  2  0  0  0  0
 14 17  1  0  0  0  0
 15 18  2  0  0  0  0
 15 19  1  0  0  0  0
 16 20  1  0  0  0  0
 17 21  2  0  0  0  0
 19 22  2  0  0  0  0
 19 23  1  0  0  0  0
 20 24  2  0  0  0  0
 22 25  1  0  0  0  0
 23 26  2  0  0  0  0
 24 27  1  0  0  0  0
 25 28  1  0  0  0  0
 25 29  2  0  0  0  0
 27 30  2  0  0  0  0
 27 31  1  0  0  0  0
 28 32  3  0  0  0  0
  9 10  1  0  0  0  0
 21 24  1  0  0  0  0
 26 29  1  0  0  0  0
M  CHG  2  27   1  31  -1
M  END
>  <MolRegNo>
644670

>  <m>
=

>  <Value>
883

>  <Unit>
nM

>  <Type>
Ki

>  <pValue>
6.05

>  <Ligand Efficiency>
0.26

>  <Binding Efficiency>
13.78

>  <Surface Efficiency>
6.3

>  <Assay Index>
482945

>  <Assay Category>


>  <Assay Organism>
Homo sapiens

>  <Target ID>
56

>  <Target Name>
Androgen Receptor

>  <Target Organism>
Homo sapiens

>  <Target Description>
Target is a single protein chain

>  <Sequence Accession>
P10275

>  <Reference>
Bioorg Med Chem 18 (12), 4255-4268 (2010)

>  <Pubmed ID>
20510622

>  <DOI>
10.1016/j.bmc.2010.04.092

$$$$
644672
Actelion Java MolfileCreator 1.0

 32 34  0  0  0  0  0  0  0  0999 V2000
    0.0000   -0.0000   -0.0000 F   0  0  0  0  0  0  0  0  0  0  0  0
   -1.3100   -0.7383   -0.0000 C   0  0  0  0  0  0  0  0  0  0  0  0
   -2.6199    0.0238   -0.0000 F   0  0  0  0  0  0  0  0  0  0  0  0
   -1.3457    0.7741   -0.0000 F   0  0  0  0  0  0  0  0  0  0  0  0
   -1.3219   -2.2269   -0.0000 C   0  0  0  0  0  0  0  0  0  0  0  0
   -0.0357   -2.9653   -0.0000 C   0  0  0  0  0  0  0  0  0  0  0  0
   -2.6437   -2.9772   -0.0000 C   0  0  0  0  0  0  0  0  0  0  0  0
   -0.0476   -4.4539   -0.0000 C   0  0  0  0  0  0  0  0  0  0  0  0
   -2.6437   -4.4658   -0.0000 C   0  0  0  0  0  0  0  0  0  0  0  0
   -1.3695   -5.1922   -0.0000 C   0  0  0  0  0  0  0  0  0  0  0  0
   -1.3814   -6.6808   -0.0000 C   0  0  0  0  0  0  0  0  0  0  0  0
   -0.0953   -7.4191   -0.0000 N   0  0  0  0  0  0  0  0  0  0  0  0
   -2.6914   -7.4191   -0.0000 C   0  0  0  0  0  0  0  0  0  0  0  0
    1.3933   -7.4072   -0.0000 C   0  0  0  0  0  0  0  0  0  0  0  0
   -4.0013   -6.6570   -0.0000 C   0  0  0  0  0  0  0  0  0  0  0  0
    2.1317   -8.6934   -0.0000 C   0  0  0  0  0  0  0  0  0  0  0  0
    2.1197   -6.0973   -0.0000 C   0  0  0  0  0  0  0  0  0  0  0  0
   -4.0132   -5.1446   -0.0000 O   0  0  0  0  0  0  0  0  0  0  0  0
   -5.3113   -7.3953   -0.0000 C   0  0  0  0  0  0  0  0  0  0  0  0
    3.6202   -8.6814   -0.0000 C   0  0  0  0  0  0  0  0  0  0  0  0
    3.6083   -6.0734   -0.0000 C   0  0  0  0  0  0  0  0  0  0  0  0
   -5.3232   -8.8958   -0.0000 C   0  0  0  0  0  0  0  0  0  0  0  0
   -6.6212   -6.6331   -0.0000 C   0  0  0  0  0  0  0  0  0  0  0  0
    4.3586   -7.3596   -0.0000 C   0  0  0  0  0  0  0  0  0  0  0  0
   -6.6451   -9.6341   -0.0000 C   0  0  0  0  0  0  0  0  0  0  0  0
   -7.9312   -7.3715   -0.0000 C   0  0  0  0  0  0  0  0  0  0  0  0
    5.8472   -7.3358   -0.0000 N   0  0  0  0  0  0  0  0  0  0  0  0
   -7.9550   -8.8720   -0.0000 C   0  0  0  0  0  0  0  0  0  0  0  0
    6.5855   -6.0139   -0.0000 O   0  0  0  0  0  0  0  0  0  0  0  0
    6.5974   -8.6219   -0.0000 O   0  0  0  0  0  0  0  0  0  0  0  0
   -9.2650   -9.6103   -0.0000 O   0  0  0  0  0  0  0  0  0  0  0  0
  -10.5749   -8.8482   -0.0000 C   0  0  0  0  0  0  0  0  0  0  0  0
  1  2  1  0  0  0  0
  2  3  1  0  0  0  0
  2  4  1  0  0  0  0
  2  5  1  0  0  0  0
  5  6  2  0  0  0  0
  5  7  1  0  0  0  0
  6  8  1  0  0  0  0
  7  9  2  0  0  0  0
  8 10  2  0  0  0  0
 10 11  1  0  0  0  0
 11 12  1  0  0  0  0
 11 13  1  0  0  0  0
 12 14  1  0  0  0  0
 13 15  1  0  0  0  0
 14 16  2  0  0  0  0
 14 17  1  0  0  0  0
 15 18  2  0  0  0  0
 15 19  1  0  0  0  0
 16 20  1  0  0  0  0
 17 21  2  0  0  0  0
 19 22  2  0  0  0  0
 19 23  1  0  0  0  0
 20 24  2  0  0  0  0
 22 25  1  0  0  0  0
 23 26  2  0  0  0  0
 24 27  1  0  0  0  0
 25 28  2  0  0  0  0
 27 29  2  0  0  0  0
 27 30  1  0  0  0  0
 28 31  1  0  0  0  0
 31 32  1  0  0  0  0
  9 10  1  0  0  0  0
 21 24  1  0  0  0  0
 26 28  1  0  0  0  0
M  CHG  2  27   1  30  -1
M  END
>  <MolRegNo>
644672

>  <m>
=

>  <Value>
320

>  <Unit>
nM

>  <Type>
Ki

>  <pValue>
6.5

>  <Ligand Efficiency>
0.28

>  <Binding Efficiency>
14.61

>  <Surface Efficiency>
7.97

>  <Assay Index>
482945

>  <Assay Category>


>  <Assay Organism>
Homo sapiens

>  <Target ID>
56

>  <Target Name>
Androgen Receptor

>  <Target Organism>
Homo sapiens

>  <Target Description>
Target is a single protein chain

>  <Sequence Accession>
P10275

>  <Reference>
Bioorg Med Chem 18 (12), 4255-4268 (2010)

>  <Pubmed ID>
20510622

>  <DOI>
10.1016/j.bmc.2010.04.092

$$$$
644716
Actelion Java MolfileCreator 1.0

 31 33  0  0  0  0  0  0  0  0999 V2000
    0.0000   -0.0000   -0.0000 Cl  0  0  0  0  0  0  0  0  0  0  0  0
    1.2850    0.7615   -0.0000 C   0  0  0  0  0  0  0  0  0  0  0  0
    2.5699    0.0238   -0.0000 C   0  0  0  0  0  0  0  0  0  0  0  0
    1.2850    2.2844   -0.0000 C   0  0  0  0  0  0  0  0  0  0  0  0
    3.8668    0.7853   -0.0000 C   0  0  0  0  0  0  0  0  0  0  0  0
    2.5699    3.0458   -0.0000 C   0  0  0  0  0  0  0  0  0  0  0  0
    3.8549    2.3082   -0.0000 C   0  0  0  0  0  0  0  0  0  0  0  0
    5.1398    3.0696   -0.0000 C   0  0  0  0  0  0  0  0  0  0  0  0
    5.1279    4.5806   -0.0000 O   0  0  0  0  0  0  0  0  0  0  0  0
    6.4248    2.3320   -0.0000 C   0  0  0  0  0  0  0  0  0  0  0  0
    7.7097    3.0934   -0.0000 C   0  0  0  0  0  0  0  0  0  0  0  0
    8.9947    2.3558   -0.0000 N   0  0  0  0  0  0  0  0  0  0  0  0
    7.6978    4.6044   -0.0000 C   0  0  0  0  0  0  0  0  0  0  0  0
   10.4819    2.3677   -0.0000 C   0  0  0  0  0  0  0  0  0  0  0  0
    8.9947    5.3659   -0.0000 C   0  0  0  0  0  0  0  0  0  0  0  0
    6.3891    5.3540   -0.0000 C   0  0  0  0  0  0  0  0  0  0  0  0
   11.2196    1.0827   -0.0000 C   0  0  0  0  0  0  0  0  0  0  0  0
   11.2077    3.6764   -0.0000 C   0  0  0  0  0  0  0  0  0  0  0  0
    8.9828    6.8769   -0.0000 C   0  0  0  0  0  0  0  0  0  0  0  0
    6.3653    6.8650   -0.0000 C   0  0  0  0  0  0  0  0  0  0  0  0
   12.7068    1.0946   -0.0000 C   0  0  0  0  0  0  0  0  0  0  0  0
   12.6949    3.7002   -0.0000 C   0  0  0  0  0  0  0  0  0  0  0  0
    7.6741    7.6384   -0.0000 C   0  0  0  0  0  0  0  0  0  0  0  0
   13.4445    2.4152   -0.0000 C   0  0  0  0  0  0  0  0  0  0  0  0
    7.6622    9.1494   -0.0000 C   0  0  0  0  0  0  0  0  0  0  0  0
   14.9317    2.4390   -0.0000 N   0  0  0  0  0  0  0  0  0  0  0  0
    8.9471    9.9108   -0.0000 F   0  0  0  0  0  0  0  0  0  0  0  0
    6.3534    9.9108   -0.0000 F   0  0  0  0  0  0  0  0  0  0  0  0
    7.6265   10.6604   -0.0000 F   0  0  0  0  0  0  0  0  0  0  0  0
   15.6693    3.7597   -0.0000 O   0  0  0  0  0  0  0  0  0  0  0  0
   15.6812    1.1541   -0.0000 O   0  0  0  0  0  0  0  0  0  0  0  0
  1  2  1  0  0  0  0
  2  3  2  0  0  0  0
  2  4  1  0  0  0  0
  3  5  1  0  0  0  0
  4  6  2  0  0  0  0
  5  7  2  0  0  0  0
  7  8  1  0  0  0  0
  8  9  2  0  0  0  0
  8 10  1  0  0  0  0
 10 11  1  0  0  0  0
 11 12  1  0  0  0  0
 11 13  1  0  0  0  0
 12 14  1  0  0  0  0
 13 15  2  0  0  0  0
 13 16  1  0  0  0  0
 14 17  2  0  0  0  0
 14 18  1  0  0  0  0
 15 19  1  0  0  0  0
 16 20  2  0  0  0  0
 17 21  1  0  0  0  0
 18 22  2  0  0  0  0
 19 23  2  0  0  0  0
 21 24  2  0  0  0  0
 23 25  1  0  0  0  0
 24 26  1  0  0  0  0
 25 27  1  0  0  0  0
 25 28  1  0  0  0  0
 25 29  1  0  0  0  0
 26 30  2  0  0  0  0
 26 31  1  0  0  0  0
  6  7  1  0  0  0  0
 20 23  1  0  0  0  0
 22 24  1  0  0  0  0
M  CHG  2  26   1  31  -1
M  END
>  <MolRegNo>
644716

>  <m>
=

>  <Value>
636

>  <Unit>
nM

>  <Type>
Ki

>  <pValue>
6.2

>  <Ligand Efficiency>
0.27

>  <Binding Efficiency>
13.81

>  <Surface Efficiency>
8.58

>  <Assay Index>
482945

>  <Assay Category>


>  <Assay Organism>
Homo sapiens

>  <Target ID>
56

>  <Target Name>
Androgen Receptor

>  <Target Organism>
Homo sapiens

>  <Target Description>
Target is a single protein chain

>  <Sequence Accession>
P10275

>  <Reference>
Bioorg Med Chem 18 (12), 4255-4268 (2010)

>  <Pubmed ID>
20510622

>  <DOI>
10.1016/j.bmc.2010.04.092

$$$$
644718
Actelion Java MolfileCreator 1.0

 27 29  0  0  0  0  0  0  0  0999 V2000
    0.0000   -0.0000   -0.0000 O   0  0  0  0  0  0  0  0  0  0  0  0
   -0.7575   -1.2901   -0.0000 N   0  0  0  0  0  0  0  0  0  0  0  0
   -0.0118   -2.5683   -0.0000 O   0  0  0  0  0  0  0  0  0  0  0  0
   -2.2606   -1.2901   -0.0000 C   0  0  0  0  0  0  0  0  0  0  0  0
   -3.0180   -2.5801   -0.0000 C   0  0  0  0  0  0  0  0  0  0  0  0
   -3.0299    0.0118   -0.0000 C   0  0  0  0  0  0  0  0  0  0  0  0
   -4.5211   -2.5683   -0.0000 C   0  0  0  0  0  0  0  0  0  0  0  0
   -4.5329    0.0118   -0.0000 C   0  0  0  0  0  0  0  0  0  0  0  0
   -5.2786   -1.2664   -0.0000 C   0  0  0  0  0  0  0  0  0  0  0  0
   -6.7817   -1.2545   -0.0000 N   0  0  0  0  0  0  0  0  0  0  0  0
   -8.0836   -0.4971   -0.0000 C   0  0  0  0  0  0  0  0  0  0  0  0
   -8.0954    1.0060   -0.0000 C   0  0  0  0  0  0  0  0  0  0  0  0
   -9.3855   -1.2309   -0.0000 C   0  0  0  0  0  0  0  0  0  0  0  0
   -6.8053    1.7635   -0.0000 C   0  0  0  0  0  0  0  0  0  0  0  0
   -9.3973    1.7516   -0.0000 C   0  0  0  0  0  0  0  0  0  0  0  0
  -10.6873   -0.4734   -0.0000 C   0  0  0  0  0  0  0  0  0  0  0  0
   -6.8172    3.2666   -0.0000 C   0  0  0  0  0  0  0  0  0  0  0  0
   -9.4210    3.2547   -0.0000 C   0  0  0  0  0  0  0  0  0  0  0  0
  -10.6992    1.0297   -0.0000 O   0  0  0  0  0  0  0  0  0  0  0  0
  -11.9892   -1.2072   -0.0000 C   0  0  0  0  0  0  0  0  0  0  0  0
   -8.1191    4.0240   -0.0000 C   0  0  0  0  0  0  0  0  0  0  0  0
  -13.2911   -0.4497   -0.0000 C   0  0  0  0  0  0  0  0  0  0  0  0
  -12.0011   -2.6985   -0.0000 C   0  0  0  0  0  0  0  0  0  0  0  0
  -14.5930   -1.1835   -0.0000 C   0  0  0  0  0  0  0  0  0  0  0  0
  -13.3148   -3.4323   -0.0000 C   0  0  0  0  0  0  0  0  0  0  0  0
  -14.6167   -2.6748   -0.0000 C   0  0  0  0  0  0  0  0  0  0  0  0
  -15.9186   -3.4086   -0.0000 C   0  0  0  0  0  0  0  0  0  0  0  0
  1  2  2  0  0  0  0
  2  3  1  0  0  0  0
  2  4  1  0  0  0  0
  4  5  2  0  0  0  0
  4  6  1  0  0  0  0
  5  7  1  0  0  0  0
  6  8  2  0  0  0  0
  7  9  2  0  0  0  0
  9 10  1  0  0  0  0
 10 11  1  0  0  0  0
 11 12  1  0  0  0  0
 11 13  1  0  0  0  0
 12 14  1  0  0  0  0
 12 15  1  0  0  0  0
 13 16  1  0  0  0  0
 14 17  1  0  0  0  0
 15 18  1  0  0  0  0
 16 19  2  0  0  0  0
 16 20  1  0  0  0  0
 17 21  1  0  0  0  0
 20 22  2  0  0  0  0
 20 23  1  0  0  0  0
 22 24  1  0  0  0  0
 23 25  2  0  0  0  0
 24 26  2  0  0  0  0
 26 27  1  0  0  0  0
  8  9  1  0  0  0  0
 18 21  1  0  0  0  0
 25 26  1  0  0  0  0
M  CHG  2   2   1   3  -1
M  END
>  <MolRegNo>
644718

>  <m>
=

>  <Value>
115

>  <Unit>
nM

>  <Type>
Ki

>  <pValue>
6.94

>  <Ligand Efficiency>
0.35

>  <Binding Efficiency>
18.94

>  <Surface Efficiency>
9.61

>  <Assay Index>
482945

>  <Assay Category>


>  <Assay Organism>
Homo sapiens

>  <Target ID>
56

>  <Target Name>
Androgen Receptor

>  <Target Organism>
Homo sapiens

>  <Target Description>
Target is a single protein chain

>  <Sequence Accession>
P10275

>  <Reference>
Bioorg Med Chem 18 (12), 4255-4268 (2010)

>  <Pubmed ID>
20510622

>  <DOI>
10.1016/j.bmc.2010.04.092

$$$$
644719
Actelion Java MolfileCreator 1.0

 28 30  0  0  0  0  0  0  0  0999 V2000
    0.0000   -0.0000   -0.0000 O   0  0  0  0  0  0  0  0  0  0  0  0
   -0.7574   -1.2899   -0.0000 N   0  0  0  0  0  0  0  0  0  0  0  0
   -0.0118   -2.5679   -0.0000 O   0  0  0  0  0  0  0  0  0  0  0  0
   -2.2602   -1.2899   -0.0000 C   0  0  0  0  0  0  0  0  0  0  0  0
   -3.0176   -2.5798   -0.0000 C   0  0  0  0  0  0  0  0  0  0  0  0
   -3.0294    0.0118   -0.0000 C   0  0  0  0  0  0  0  0  0  0  0  0
   -4.5205   -2.5679   -0.0000 C   0  0  0  0  0  0  0  0  0  0  0  0
   -4.5323    0.0118   -0.0000 C   0  0  0  0  0  0  0  0  0  0  0  0
   -5.2778   -1.2662   -0.0000 C   0  0  0  0  0  0  0  0  0  0  0  0
   -6.7807   -1.2544   -0.0000 N   0  0  0  0  0  0  0  0  0  0  0  0
   -8.0824   -0.4970   -0.0000 C   0  0  0  0  0  0  0  0  0  0  0  0
   -8.0943    1.0059   -0.0000 C   0  0  0  0  0  0  0  0  0  0  0  0
   -9.3842   -1.2307   -0.0000 C   0  0  0  0  0  0  0  0  0  0  0  0
   -6.8044    1.7632   -0.0000 C   0  0  0  0  0  0  0  0  0  0  0  0
   -9.3960    1.7514   -0.0000 C   0  0  0  0  0  0  0  0  0  0  0  0
  -10.6859   -0.4733   -0.0000 C   0  0  0  0  0  0  0  0  0  0  0  0
   -6.8162    3.2661   -0.0000 C   0  0  0  0  0  0  0  0  0  0  0  0
   -9.4197    3.2543   -0.0000 C   0  0  0  0  0  0  0  0  0  0  0  0
  -10.6977    1.0295   -0.0000 O   0  0  0  0  0  0  0  0  0  0  0  0
  -11.9876   -1.2070   -0.0000 C   0  0  0  0  0  0  0  0  0  0  0  0
   -8.1179    4.0235   -0.0000 C   0  0  0  0  0  0  0  0  0  0  0  0
  -11.9994   -2.6981   -0.0000 C   0  0  0  0  0  0  0  0  0  0  0  0
  -13.2893   -0.4497   -0.0000 C   0  0  0  0  0  0  0  0  0  0  0  0
  -13.3130   -3.4318   -0.0000 C   0  0  0  0  0  0  0  0  0  0  0  0
  -14.5910   -1.1834   -0.0000 C   0  0  0  0  0  0  0  0  0  0  0  0
  -14.6147   -2.6744   -0.0000 C   0  0  0  0  0  0  0  0  0  0  0  0
  -15.9164   -3.4081   -0.0000 O   0  0  0  0  0  0  0  0  0  0  0  0
  -17.2181   -2.6508   -0.0000 C   0  0  0  0  0  0  0  0  0  0  0  0
  1  2  2  0  0  0  0
  2  3  1  0  0  0  0
  2  4  1  0  0  0  0
  4  5  2  0  0  0  0
  4  6  1  0  0  0  0
  5  7  1  0  0  0  0
  6  8  2  0  0  0  0
  7  9  2  0  0  0  0
  9 10  1  0  0  0  0
 10 11  1  0  0  0  0
 11 12  1  0  0  0  0
 11 13  1  0  0  0  0
 12 14  1  0  0  0  0
 12 15  1  0  0  0  0
 13 16  1  0  0  0  0
 14 17  1  0  0  0  0
 15 18  1  0  0  0  0
 16 19  2  0  0  0  0
 16 20  1  0  0  0  0
 17 21  1  0  0  0  0
 20 22  2  0  0  0  0
 20 23  1  0  0  0  0
 22 24  1  0  0  0  0
 23 25  2  0  0  0  0
 24 26  2  0  0  0  0
 26 27  1  0  0  0  0
 27 28  1  0  0  0  0
  8  9  1  0  0  0  0
 18 21  1  0  0  0  0
 25 26  1  0  0  0  0
M  CHG  2   2   1   3  -1
M  END
>  <MolRegNo>
644719

>  <m>
=

>  <Value>
37

>  <Unit>
nM

>  <Type>
Ki

>  <pValue>
7.43

>  <Ligand Efficiency>
0.36

>  <Binding Efficiency>
19.43

>  <Surface Efficiency>
9.12

>  <Assay Index>
482945

>  <Assay Category>


>  <Assay Organism>
Homo sapiens

>  <Target ID>
56

>  <Target Name>
Androgen Receptor

>  <Target Organism>
Homo sapiens

>  <Target Description>
Target is a single protein chain

>  <Sequence Accession>
P10275

>  <Reference>
Bioorg Med Chem 18 (12), 4255-4268 (2010)

>  <Pubmed ID>
20510622

>  <DOI>
10.1016/j.bmc.2010.04.092

$$$$
644720
Actelion Java MolfileCreator 1.0

 27 29  0  0  0  0  0  0  0  0999 V2000
    0.0000   -0.0000   -0.0000 Br  0  0  0  0  0  0  0  0  0  0  0  0
    1.2859    0.7620   -0.0000 C   0  0  0  0  0  0  0  0  0  0  0  0
    2.5717    0.0238   -0.0000 C   0  0  0  0  0  0  0  0  0  0  0  0
    1.2859    2.2860   -0.0000 C   0  0  0  0  0  0  0  0  0  0  0  0
    3.8695    0.7858   -0.0000 C   0  0  0  0  0  0  0  0  0  0  0  0
    2.5717    3.0479   -0.0000 C   0  0  0  0  0  0  0  0  0  0  0  0
    3.8576    2.3098   -0.0000 C   0  0  0  0  0  0  0  0  0  0  0  0
    5.1434    3.0718   -0.0000 C   0  0  0  0  0  0  0  0  0  0  0  0
    5.1315    4.5838   -0.0000 O   0  0  0  0  0  0  0  0  0  0  0  0
    6.4293    2.3336   -0.0000 C   0  0  0  0  0  0  0  0  0  0  0  0
    7.7151    3.0956   -0.0000 C   0  0  0  0  0  0  0  0  0  0  0  0
    9.0010    2.3574   -0.0000 N   0  0  0  0  0  0  0  0  0  0  0  0
    7.7032    4.6076   -0.0000 C   0  0  0  0  0  0  0  0  0  0  0  0
   10.4892    2.3693   -0.0000 C   0  0  0  0  0  0  0  0  0  0  0  0
    9.0010    5.3696   -0.0000 C   0  0  0  0  0  0  0  0  0  0  0  0
    6.3935    5.3577   -0.0000 C   0  0  0  0  0  0  0  0  0  0  0  0
   11.2274    1.0834   -0.0000 C   0  0  0  0  0  0  0  0  0  0  0  0
   11.2155    3.6790   -0.0000 C   0  0  0  0  0  0  0  0  0  0  0  0
    8.9891    6.8817   -0.0000 C   0  0  0  0  0  0  0  0  0  0  0  0
    6.3697    6.8698   -0.0000 C   0  0  0  0  0  0  0  0  0  0  0  0
   12.7156    1.0954   -0.0000 C   0  0  0  0  0  0  0  0  0  0  0  0
   12.7037    3.7028   -0.0000 C   0  0  0  0  0  0  0  0  0  0  0  0
    7.6794    7.6437   -0.0000 C   0  0  0  0  0  0  0  0  0  0  0  0
   13.4538    2.4169   -0.0000 C   0  0  0  0  0  0  0  0  0  0  0  0
   14.9421    2.4407   -0.0000 N   0  0  0  0  0  0  0  0  0  0  0  0
   15.6803    3.7623   -0.0000 O   0  0  0  0  0  0  0  0  0  0  0  0
   15.6922    1.1549   -0.0000 O   0  0  0  0  0  0  0  0  0  0  0  0
  1  2  1  0  0  0  0
  2  3  2  0  0  0  0
  2  4  1  0  0  0  0
  3  5  1  0  0  0  0
  4  6  2  0  0  0  0
  5  7  2  0  0  0  0
  7  8  1  0  0  0  0
  8  9  2  0  0  0  0
  8 10  1  0  0  0  0
 10 11  1  0  0  0  0
 11 12  1  0  0  0  0
 11 13  1  0  0  0  0
 12 14  1  0  0  0  0
 13 15  1  0  0  0  0
 13 16  1  0  0  0  0
 14 17  2  0  0  0  0
 14 18  1  0  0  0  0
 15 19  1  0  0  0  0
 16 20  1  0  0  0  0
 17 21  1  0  0  0  0
 18 22  2  0  0  0  0
 19 23  1  0  0  0  0
 21 24  2  0  0  0  0
 24 25  1  0  0  0  0
 25 26  2  0  0  0  0
 25 27  1  0  0  0  0
  6  7  1  0  0  0  0
 20 23  1  0  0  0  0
 22 24  1  0  0  0  0
M  CHG  2  25   1  27  -1
M  END
>  <MolRegNo>
644720

>  <m>
=

>  <Value>
35

>  <Unit>
nM

>  <Type>
Ki

>  <pValue>
7.46

>  <Ligand Efficiency>
0.38

>  <Binding Efficiency>
17.29

>  <Surface Efficiency>
10.32

>  <Assay Index>
482945

>  <Assay Category>


>  <Assay Organism>
Homo sapiens

>  <Target ID>
56

>  <Target Name>
Androgen Receptor

>  <Target Organism>
Homo sapiens

>  <Target Description>
Target is a single protein chain

>  <Sequence Accession>
P10275

>  <Reference>
Bioorg Med Chem 18 (12), 4255-4268 (2010)

>  <Pubmed ID>
20510622

>  <DOI>
10.1016/j.bmc.2010.04.092

$$$$
644781
Actelion Java MolfileCreator 1.0

 27 29  0  0  0  0  0  0  0  0999 V2000
    0.0000   -0.0000   -0.0000 Cl  0  0  0  0  0  0  0  0  0  0  0  0
    1.2859    0.7620   -0.0000 C   0  0  0  0  0  0  0  0  0  0  0  0
    2.5717    0.0238   -0.0000 C   0  0  0  0  0  0  0  0  0  0  0  0
    1.2859    2.2860   -0.0000 C   0  0  0  0  0  0  0  0  0  0  0  0
    3.8695    0.7858   -0.0000 C   0  0  0  0  0  0  0  0  0  0  0  0
    2.5717    3.0479   -0.0000 C   0  0  0  0  0  0  0  0  0  0  0  0
    3.8576    2.3098   -0.0000 C   0  0  0  0  0  0  0  0  0  0  0  0
    5.1434    3.0718   -0.0000 C   0  0  0  0  0  0  0  0  0  0  0  0
    5.1315    4.5838   -0.0000 O   0  0  0  0  0  0  0  0  0  0  0  0
    6.4293    2.3336   -0.0000 C   0  0  0  0  0  0  0  0  0  0  0  0
    7.7151    3.0956   -0.0000 C   0  0  0  0  0  0  0  0  0  0  0  0
    9.0010    2.3574   -0.0000 N   0  0  0  0  0  0  0  0  0  0  0  0
    7.7032    4.6076   -0.0000 C   0  0  0  0  0  0  0  0  0  0  0  0
   10.4892    2.3693   -0.0000 C   0  0  0  0  0  0  0  0  0  0  0  0
    9.0010    5.3696   -0.0000 C   0  0  0  0  0  0  0  0  0  0  0  0
    6.3935    5.3577   -0.0000 C   0  0  0  0  0  0  0  0  0  0  0  0
   11.2274    1.0834   -0.0000 C   0  0  0  0  0  0  0  0  0  0  0  0
   11.2155    3.6790   -0.0000 C   0  0  0  0  0  0  0  0  0  0  0  0
    8.9891    6.8817   -0.0000 C   0  0  0  0  0  0  0  0  0  0  0  0
    6.3697    6.8698   -0.0000 C   0  0  0  0  0  0  0  0  0  0  0  0
   12.7156    1.0954   -0.0000 C   0  0  0  0  0  0  0  0  0  0  0  0
   12.7037    3.7028   -0.0000 C   0  0  0  0  0  0  0  0  0  0  0  0
    7.6794    7.6437   -0.0000 C   0  0  0  0  0  0  0  0  0  0  0  0
   13.4538    2.4169   -0.0000 C   0  0  0  0  0  0  0  0  0  0  0  0
   14.9421    2.4407   -0.0000 N   0  0  0  0  0  0  0  0  0  0  0  0
   15.6803    3.7623   -0.0000 O   0  0  0  0  0  0  0  0  0  0  0  0
   15.6922    1.1549   -0.0000 O   0  0  0  0  0  0  0  0  0  0  0  0
  1  2  1  0  0  0  0
  2  3  2  0  0  0  0
  2  4  1  0  0  0  0
  3  5  1  0  0  0  0
  4  6  2  0  0  0  0
  5  7  2  0  0  0  0
  7  8  1  0  0  0  0
  8  9  2  0  0  0  0
  8 10  1  0  0  0  0
 10 11  1  0  0  0  0
 11 12  1  0  0  0  0
 11 13  1  0  0  0  0
 12 14  1  0  0  0  0
 13 15  1  0  0  0  0
 13 16  1  0  0  0  0
 14 17  2  0  0  0  0
 14 18  1  0  0  0  0
 15 19  1  0  0  0  0
 16 20  1  0  0  0  0
 17 21  1  0  0  0  0
 18 22  2  0  0  0  0
 19 23  1  0  0  0  0
 21 24  2  0  0  0  0
 24 25  1  0  0  0  0
 25 26  2  0  0  0  0
 25 27  1  0  0  0  0
  6  7  1  0  0  0  0
 20 23  1  0  0  0  0
 22 24  1  0  0  0  0
M  CHG  2  25   1  27  -1
M  END
>  <MolRegNo>
644781

>  <m>
=

>  <Value>
45

>  <Unit>
nM

>  <Type>
Ki

>  <pValue>
7.35

>  <Ligand Efficiency>
0.37

>  <Binding Efficiency>
18.99

>  <Surface Efficiency>
10.17

>  <Assay Index>
482945

>  <Assay Category>


>  <Assay Organism>
Homo sapiens

>  <Target ID>
56

>  <Target Name>
Androgen Receptor

>  <Target Organism>
Homo sapiens

>  <Target Description>
Target is a single protein chain

>  <Sequence Accession>
P10275

>  <Reference>
Bioorg Med Chem 18 (12), 4255-4268 (2010)

>  <Pubmed ID>
20510622

>  <DOI>
10.1016/j.bmc.2010.04.092

$$$$
644782
Actelion Java MolfileCreator 1.0

 27 29  0  0  0  0  0  0  0  0999 V2000
    0.0000   -0.0000   -0.0000 F   0  0  0  0  0  0  0  0  0  0  0  0
    1.2859    0.7620   -0.0000 C   0  0  0  0  0  0  0  0  0  0  0  0
    2.5717    0.0238   -0.0000 C   0  0  0  0  0  0  0  0  0  0  0  0
    1.2859    2.2860   -0.0000 C   0  0  0  0  0  0  0  0  0  0  0  0
    3.8695    0.7858   -0.0000 C   0  0  0  0  0  0  0  0  0  0  0  0
    2.5717    3.0479   -0.0000 C   0  0  0  0  0  0  0  0  0  0  0  0
    3.8576    2.3098   -0.0000 C   0  0  0  0  0  0  0  0  0  0  0  0
    5.1434    3.0718   -0.0000 C   0  0  0  0  0  0  0  0  0  0  0  0
    5.1315    4.5838   -0.0000 O   0  0  0  0  0  0  0  0  0  0  0  0
    6.4293    2.3336   -0.0000 C   0  0  0  0  0  0  0  0  0  0  0  0
    7.7151    3.0956   -0.0000 C   0  0  0  0  0  0  0  0  0  0  0  0
    9.0010    2.3574   -0.0000 N   0  0  0  0  0  0  0  0  0  0  0  0
    7.7032    4.6076   -0.0000 C   0  0  0  0  0  0  0  0  0  0  0  0
   10.4892    2.3693   -0.0000 C   0  0  0  0  0  0  0  0  0  0  0  0
    9.0010    5.3696   -0.0000 C   0  0  0  0  0  0  0  0  0  0  0  0
    6.3935    5.3577   -0.0000 C   0  0  0  0  0  0  0  0  0  0  0  0
   11.2274    1.0834   -0.0000 C   0  0  0  0  0  0  0  0  0  0  0  0
   11.2155    3.6790   -0.0000 C   0  0  0  0  0  0  0  0  0  0  0  0
    8.9891    6.8817   -0.0000 C   0  0  0  0  0  0  0  0  0  0  0  0
    6.3697    6.8698   -0.0000 C   0  0  0  0  0  0  0  0  0  0  0  0
   12.7156    1.0954   -0.0000 C   0  0  0  0  0  0  0  0  0  0  0  0
   12.7037    3.7028   -0.0000 C   0  0  0  0  0  0  0  0  0  0  0  0
    7.6794    7.6437   -0.0000 C   0  0  0  0  0  0  0  0  0  0  0  0
   13.4538    2.4169   -0.0000 C   0  0  0  0  0  0  0  0  0  0  0  0
   14.9421    2.4407   -0.0000 N   0  0  0  0  0  0  0  0  0  0  0  0
   15.6803    3.7623   -0.0000 O   0  0  0  0  0  0  0  0  0  0  0  0
   15.6922    1.1549   -0.0000 O   0  0  0  0  0  0  0  0  0  0  0  0
  1  2  1  0  0  0  0
  2  3  2  0  0  0  0
  2  4  1  0  0  0  0
  3  5  1  0  0  0  0
  4  6  2  0  0  0  0
  5  7  2  0  0  0  0
  7  8  1  0  0  0  0
  8  9  2  0  0  0  0
  8 10  1  0  0  0  0
 10 11  1  0  0  0  0
 11 12  1  0  0  0  0
 11 13  1  0  0  0  0
 12 14  1  0  0  0  0
 13 15  1  0  0  0  0
 13 16  1  0  0  0  0
 14 17  2  0  0  0  0
 14 18  1  0  0  0  0
 15 19  1  0  0  0  0
 16 20  1  0  0  0  0
 17 21  1  0  0  0  0
 18 22  2  0  0  0  0
 19 23  1  0  0  0  0
 21 24  2  0  0  0  0
 24 25  1  0  0  0  0
 25 26  2  0  0  0  0
 25 27  1  0  0  0  0
  6  7  1  0  0  0  0
 20 23  1  0  0  0  0
 22 24  1  0  0  0  0
M  CHG  2  25   1  27  -1
M  END
>  <MolRegNo>
644782

>  <m>
=

>  <Value>
64

>  <Unit>
nM

>  <Type>
Ki

>  <pValue>
7.19

>  <Ligand Efficiency>
0.36

>  <Binding Efficiency>
19.42

>  <Surface Efficiency>
9.96

>  <Assay Index>
482945

>  <Assay Category>


>  <Assay Organism>
Homo sapiens

>  <Target ID>
56

>  <Target Name>
Androgen Receptor

>  <Target Organism>
Homo sapiens

>  <Target Description>
Target is a single protein chain

>  <Sequence Accession>
P10275

>  <Reference>
Bioorg Med Chem 18 (12), 4255-4268 (2010)

>  <Pubmed ID>
20510622

>  <DOI>
10.1016/j.bmc.2010.04.092

$$$$
644783
Actelion Java MolfileCreator 1.0

 27 29  0  0  0  0  0  0  0  0999 V2000
    0.0000   -0.0000   -0.0000 F   0  0  0  0  0  0  0  0  0  0  0  0
   -0.0119    1.5092   -0.0000 C   0  0  0  0  0  0  0  0  0  0  0  0
    1.2834    2.2697   -0.0000 C   0  0  0  0  0  0  0  0  0  0  0  0
   -1.3191    2.2697   -0.0000 C   0  0  0  0  0  0  0  0  0  0  0  0
    1.2715    3.7908   -0.0000 C   0  0  0  0  0  0  0  0  0  0  0  0
   -1.3191    3.7908   -0.0000 C   0  0  0  0  0  0  0  0  0  0  0  0
    2.5550    4.5514   -0.0000 C   0  0  0  0  0  0  0  0  0  0  0  0
   -0.0357    4.5514   -0.0000 C   0  0  0  0  0  0  0  0  0  0  0  0
    2.5431    6.0606   -0.0000 O   0  0  0  0  0  0  0  0  0  0  0  0
    3.8384    3.8146   -0.0000 C   0  0  0  0  0  0  0  0  0  0  0  0
    5.1218    4.5751   -0.0000 C   0  0  0  0  0  0  0  0  0  0  0  0
    6.4052    3.8384   -0.0000 N   0  0  0  0  0  0  0  0  0  0  0  0
    5.1099    6.0844   -0.0000 C   0  0  0  0  0  0  0  0  0  0  0  0
    7.8906    3.8503   -0.0000 C   0  0  0  0  0  0  0  0  0  0  0  0
    6.4052    6.8449   -0.0000 C   0  0  0  0  0  0  0  0  0  0  0  0
    3.8027    6.8330   -0.0000 C   0  0  0  0  0  0  0  0  0  0  0  0
    8.6274    2.5668   -0.0000 C   0  0  0  0  0  0  0  0  0  0  0  0
    8.6155    5.1574   -0.0000 C   0  0  0  0  0  0  0  0  0  0  0  0
    6.3933    8.3541   -0.0000 C   0  0  0  0  0  0  0  0  0  0  0  0
    3.7790    8.3422   -0.0000 C   0  0  0  0  0  0  0  0  0  0  0  0
   10.1129    2.5787   -0.0000 C   0  0  0  0  0  0  0  0  0  0  0  0
   10.1010    5.1812   -0.0000 C   0  0  0  0  0  0  0  0  0  0  0  0
    5.0861    9.1146   -0.0000 C   0  0  0  0  0  0  0  0  0  0  0  0
   10.8496    3.8978   -0.0000 C   0  0  0  0  0  0  0  0  0  0  0  0
   12.3351    3.9216   -0.0000 N   0  0  0  0  0  0  0  0  0  0  0  0
   13.0718    5.2406   -0.0000 O   0  0  0  0  0  0  0  0  0  0  0  0
   13.0837    2.6381   -0.0000 O   0  0  0  0  0  0  0  0  0  0  0  0
  1  2  1  0  0  0  0
  2  3  2  0  0  0  0
  2  4  1  0  0  0  0
  3  5  1  0  0  0  0
  4  6  2  0  0  0  0
  5  7  1  0  0  0  0
  5  8  2  0  0  0  0
  7  9  2  0  0  0  0
  7 10  1  0  0  0  0
 10 11  1  0  0  0  0
 11 12  1  0  0  0  0
 11 13  1  0  0  0  0
 12 14  1  0  0  0  0
 13 15  1  0  0  0  0
 13 16  1  0  0  0  0
 14 17  2  0  0  0  0
 14 18  1  0  0  0  0
 15 19  1  0  0  0  0
 16 20  1  0  0  0  0
 17 21  1  0  0  0  0
 18 22  2  0  0  0  0
 19 23  1  0  0  0  0
 21 24  2  0  0  0  0
 24 25  1  0  0  0  0
 25 26  2  0  0  0  0
 25 27  1  0  0  0  0
  6  8  1  0  0  0  0
 20 23  1  0  0  0  0
 22 24  1  0  0  0  0
M  CHG  2  25   1  27  -1
M  END
>  <MolRegNo>
644783

>  <m>
=

>  <Value>
64

>  <Unit>
nM

>  <Type>
Ki

>  <pValue>
7.19

>  <Ligand Efficiency>
0.36

>  <Binding Efficiency>
19.42

>  <Surface Efficiency>
9.96

>  <Assay Index>
482945

>  <Assay Category>


>  <Assay Organism>
Homo sapiens

>  <Target ID>
56

>  <Target Name>
Androgen Receptor

>  <Target Organism>
Homo sapiens

>  <Target Description>
Target is a single protein chain

>  <Sequence Accession>
P10275

>  <Reference>
Bioorg Med Chem 18 (12), 4255-4268 (2010)

>  <Pubmed ID>
20510622

>  <DOI>
10.1016/j.bmc.2010.04.092

$$$$
644784
Actelion Java MolfileCreator 1.0

 28 30  0  0  0  0  0  0  0  0999 V2000
    0.0000   -0.0000   -0.0000 O   0  0  0  0  0  0  0  0  0  0  0  0
   -0.7578   -1.2906   -0.0000 N   0  0  0  0  0  0  0  0  0  0  0  0
   -0.0118   -2.5694   -0.0000 O   0  0  0  0  0  0  0  0  0  0  0  0
   -2.2616   -1.2906   -0.0000 C   0  0  0  0  0  0  0  0  0  0  0  0
   -3.0194   -2.5813   -0.0000 C   0  0  0  0  0  0  0  0  0  0  0  0
   -3.0312    0.0118   -0.0000 C   0  0  0  0  0  0  0  0  0  0  0  0
   -4.5232   -2.5694   -0.0000 C   0  0  0  0  0  0  0  0  0  0  0  0
   -4.5350    0.0118   -0.0000 C   0  0  0  0  0  0  0  0  0  0  0  0
   -5.2810   -1.2670   -0.0000 C   0  0  0  0  0  0  0  0  0  0  0  0
   -6.7848   -1.2551   -0.0000 N   0  0  0  0  0  0  0  0  0  0  0  0
   -8.0872   -0.4973   -0.0000 C   0  0  0  0  0  0  0  0  0  0  0  0
   -8.0991    1.0065   -0.0000 C   0  0  0  0  0  0  0  0  0  0  0  0
   -9.3897   -1.2314   -0.0000 C   0  0  0  0  0  0  0  0  0  0  0  0
   -6.8084    1.7643   -0.0000 C   0  0  0  0  0  0  0  0  0  0  0  0
   -9.4016    1.7524   -0.0000 C   0  0  0  0  0  0  0  0  0  0  0  0
  -10.6922   -0.4736   -0.0000 C   0  0  0  0  0  0  0  0  0  0  0  0
   -6.8203    3.2681   -0.0000 C   0  0  0  0  0  0  0  0  0  0  0  0
   -9.4253    3.2562   -0.0000 C   0  0  0  0  0  0  0  0  0  0  0  0
  -10.7041    1.0301   -0.0000 O   0  0  0  0  0  0  0  0  0  0  0  0
  -11.9947   -1.2078   -0.0000 C   0  0  0  0  0  0  0  0  0  0  0  0
   -8.1228    4.0259   -0.0000 C   0  0  0  0  0  0  0  0  0  0  0  0
  -12.0065   -2.6997   -0.0000 C   0  0  0  0  0  0  0  0  0  0  0  0
  -13.2972   -0.4499   -0.0000 C   0  0  0  0  0  0  0  0  0  0  0  0
  -13.3209   -3.4338   -0.0000 C   0  0  0  0  0  0  0  0  0  0  0  0
  -14.5997   -1.1841   -0.0000 C   0  0  0  0  0  0  0  0  0  0  0  0
  -13.3327   -4.9139   -0.0000 O   0  0  0  0  0  0  0  0  0  0  0  0
  -14.6234   -2.6760   -0.0000 C   0  0  0  0  0  0  0  0  0  0  0  0
  -14.6352   -5.6480   -0.0000 C   0  0  0  0  0  0  0  0  0  0  0  0
  1  2  2  0  0  0  0
  2  3  1  0  0  0  0
  2  4  1  0  0  0  0
  4  5  2  0  0  0  0
  4  6  1  0  0  0  0
  5  7  1  0  0  0  0
  6  8  2  0  0  0  0
  7  9  2  0  0  0  0
  9 10  1  0  0  0  0
 10 11  1  0  0  0  0
 11 12  1  0  0  0  0
 11 13  1  0  0  0  0
 12 14  1  0  0  0  0
 12 15  1  0  0  0  0
 13 16  1  0  0  0  0
 14 17  1  0  0  0  0
 15 18  1  0  0  0  0
 16 19  2  0  0  0  0
 16 20  1  0  0  0  0
 17 21  1  0  0  0  0
 20 22  2  0  0  0  0
 20 23  1  0  0  0  0
 22 24  1  0  0  0  0
 23 25  2  0  0  0  0
 24 26  1  0  0  0  0
 24 27  2  0  0  0  0
 26 28  1  0  0  0  0
  8  9  1  0  0  0  0
 18 21  1  0  0  0  0
 25 27  1  0  0  0  0
M  CHG  2   2   1   3  -1
M  END
>  <MolRegNo>
644784

>  <m>
=

>  <Value>
406

>  <Unit>
nM

>  <Type>
Ki

>  <pValue>
6.39

>  <Ligand Efficiency>
0.31

>  <Binding Efficiency>
16.71

>  <Surface Efficiency>
7.85

>  <Assay Index>
482945

>  <Assay Category>


>  <Assay Organism>
Homo sapiens

>  <Target ID>
56

>  <Target Name>
Androgen Receptor

>  <Target Organism>
Homo sapiens

>  <Target Description>
Target is a single protein chain

>  <Sequence Accession>
P10275

>  <Reference>
Bioorg Med Chem 18 (12), 4255-4268 (2010)

>  <Pubmed ID>
20510622

>  <DOI>
10.1016/j.bmc.2010.04.092

$$$$
644785
Actelion Java MolfileCreator 1.0

 28 30  0  0  0  0  0  0  0  0999 V2000
    0.0000   -0.0000   -0.0000 Cl  0  0  0  0  0  0  0  0  0  0  0  0
   -0.0119    1.5096   -0.0000 C   0  0  0  0  0  0  0  0  0  0  0  0
   -1.3194    2.2703   -0.0000 C   0  0  0  0  0  0  0  0  0  0  0  0
    1.2837    2.2703   -0.0000 C   0  0  0  0  0  0  0  0  0  0  0  0
   -2.6269    1.5334   -0.0000 Cl  0  0  0  0  0  0  0  0  0  0  0  0
   -1.3194    3.7918   -0.0000 C   0  0  0  0  0  0  0  0  0  0  0  0
    1.2719    3.7918   -0.0000 C   0  0  0  0  0  0  0  0  0  0  0  0
   -0.0357    4.5525   -0.0000 C   0  0  0  0  0  0  0  0  0  0  0  0
    2.5556    4.5525   -0.0000 C   0  0  0  0  0  0  0  0  0  0  0  0
    2.5437    6.0621   -0.0000 O   0  0  0  0  0  0  0  0  0  0  0  0
    3.8393    3.8156   -0.0000 C   0  0  0  0  0  0  0  0  0  0  0  0
    5.1231    4.5763   -0.0000 C   0  0  0  0  0  0  0  0  0  0  0  0
    6.4068    3.8393   -0.0000 N   0  0  0  0  0  0  0  0  0  0  0  0
    5.1112    6.0859   -0.0000 C   0  0  0  0  0  0  0  0  0  0  0  0
    7.8927    3.8512   -0.0000 C   0  0  0  0  0  0  0  0  0  0  0  0
    6.4068    6.8348   -0.0000 C   0  0  0  0  0  0  0  0  0  0  0  0
    3.8037    6.8348   -0.0000 C   0  0  0  0  0  0  0  0  0  0  0  0
    8.6296    2.5675   -0.0000 C   0  0  0  0  0  0  0  0  0  0  0  0
    8.6177    5.1588   -0.0000 C   0  0  0  0  0  0  0  0  0  0  0  0
    6.3950    8.3443   -0.0000 C   0  0  0  0  0  0  0  0  0  0  0  0
    3.7799    8.3443   -0.0000 C   0  0  0  0  0  0  0  0  0  0  0  0
   10.1154    2.5794   -0.0000 C   0  0  0  0  0  0  0  0  0  0  0  0
   10.1035    5.1825   -0.0000 C   0  0  0  0  0  0  0  0  0  0  0  0
    5.0874    9.1051   -0.0000 C   0  0  0  0  0  0  0  0  0  0  0  0
   10.8524    3.8988   -0.0000 C   0  0  0  0  0  0  0  0  0  0  0  0
   12.3382    3.9226   -0.0000 N   0  0  0  0  0  0  0  0  0  0  0  0
   13.0752    5.2420   -0.0000 O   0  0  0  0  0  0  0  0  0  0  0  0
   13.0871    2.6388   -0.0000 O   0  0  0  0  0  0  0  0  0  0  0  0
  1  2  1  0  0  0  0
  2  3  2  0  0  0  0
  2  4  1  0  0  0  0
  3  5  1  0  0  0  0
  3  6  1  0  0  0  0
  4  7  2  0  0  0  0
  6  8  2  0  0  0  0
  7  9  1  0  0  0  0
  9 10  2  0  0  0  0
  9 11  1  0  0  0  0
 11 12  1  0  0  0  0
 12 13  1  0  0  0  0
 12 14  1  0  0  0  0
 13 15  1  0  0  0  0
 14 16  1  0  0  0  0
 14 17  1  0  0  0  0
 15 18  2  0  0  0  0
 15 19  1  0  0  0  0
 16 20  1  0  0  0  0
 17 21  1  0  0  0  0
 18 22  1  0  0  0  0
 19 23  2  0  0  0  0
 20 24  1  0  0  0  0
 22 25  2  0  0  0  0
 25 26  1  0  0  0  0
 26 27  2  0  0  0  0
 26 28  1  0  0  0  0
  7  8  1  0  0  0  0
 21 24  1  0  0  0  0
 23 25  1  0  0  0  0
M  CHG  2  26   1  28  -1
M  END
>  <MolRegNo>
644785

>  <m>
=

>  <Value>
140

>  <Unit>
nM

>  <Type>
Ki

>  <pValue>
6.85

>  <Ligand Efficiency>
0.33

>  <Binding Efficiency>
16.27

>  <Surface Efficiency>
9.49

>  <Assay Index>
482945

>  <Assay Category>


>  <Assay Organism>
Homo sapiens

>  <Target ID>
56

>  <Target Name>
Androgen Receptor

>  <Target Organism>
Homo sapiens

>  <Target Description>
Target is a single protein chain

>  <Sequence Accession>
P10275

>  <Reference>
Bioorg Med Chem 18 (12), 4255-4268 (2010)

>  <Pubmed ID>
20510622

>  <DOI>
10.1016/j.bmc.2010.04.092

$$$$
644821
Actelion Java MolfileCreator 1.0

 26 28  0  0  0  0  0  0  0  0999 V2000
    0.0000   -0.0000   -0.0000 O   0  0  0  0  0  0  0  0  0  0  0  0
   -0.7576   -1.2903   -0.0000 N   0  0  0  0  0  0  0  0  0  0  0  0
   -0.0118   -2.5687   -0.0000 O   0  0  0  0  0  0  0  0  0  0  0  0
   -2.2609   -1.2903   -0.0000 C   0  0  0  0  0  0  0  0  0  0  0  0
   -3.0185   -2.5805   -0.0000 C   0  0  0  0  0  0  0  0  0  0  0  0
   -3.0303    0.0118   -0.0000 C   0  0  0  0  0  0  0  0  0  0  0  0
   -4.5218   -2.5687   -0.0000 C   0  0  0  0  0  0  0  0  0  0  0  0
   -4.5336    0.0118   -0.0000 C   0  0  0  0  0  0  0  0  0  0  0  0
   -5.2794   -1.2666   -0.0000 C   0  0  0  0  0  0  0  0  0  0  0  0
   -6.7827   -1.2547   -0.0000 N   0  0  0  0  0  0  0  0  0  0  0  0
   -8.0848   -0.4972   -0.0000 C   0  0  0  0  0  0  0  0  0  0  0  0
   -8.0966    1.0062   -0.0000 C   0  0  0  0  0  0  0  0  0  0  0  0
   -9.3869   -1.2311   -0.0000 C   0  0  0  0  0  0  0  0  0  0  0  0
   -6.8064    1.7519   -0.0000 C   0  0  0  0  0  0  0  0  0  0  0  0
   -9.3987    1.7519   -0.0000 C   0  0  0  0  0  0  0  0  0  0  0  0
  -10.6890   -0.4735   -0.0000 C   0  0  0  0  0  0  0  0  0  0  0  0
   -6.8182    3.2552   -0.0000 C   0  0  0  0  0  0  0  0  0  0  0  0
   -9.4224    3.2552   -0.0000 C   0  0  0  0  0  0  0  0  0  0  0  0
  -10.7008    1.0298   -0.0000 O   0  0  0  0  0  0  0  0  0  0  0  0
  -11.9911   -1.2074   -0.0000 C   0  0  0  0  0  0  0  0  0  0  0  0
   -8.1203    4.0128   -0.0000 C   0  0  0  0  0  0  0  0  0  0  0  0
  -13.2931   -0.4498   -0.0000 C   0  0  0  0  0  0  0  0  0  0  0  0
  -12.0029   -2.6989   -0.0000 C   0  0  0  0  0  0  0  0  0  0  0  0
  -14.5952   -1.1837   -0.0000 C   0  0  0  0  0  0  0  0  0  0  0  0
  -13.3168   -3.4328   -0.0000 C   0  0  0  0  0  0  0  0  0  0  0  0
  -14.6189   -2.6752   -0.0000 C   0  0  0  0  0  0  0  0  0  0  0  0
  1  2  2  0  0  0  0
  2  3  1  0  0  0  0
  2  4  1  0  0  0  0
  4  5  2  0  0  0  0
  4  6  1  0  0  0  0
  5  7  1  0  0  0  0
  6  8  2  0  0  0  0
  7  9  2  0  0  0  0
  9 10  1  0  0  0  0
 10 11  1  0  0  0  0
 11 12  1  0  0  0  0
 11 13  1  0  0  0  0
 12 14  1  0  0  0  0
 12 15  1  0  0  0  0
 13 16  1  0  0  0  0
 14 17  1  0  0  0  0
 15 18  1  0  0  0  0
 16 19  2  0  0  0  0
 16 20  1  0  0  0  0
 17 21  1  0  0  0  0
 20 22  2  0  0  0  0
 20 23  1  0  0  0  0
 22 24  1  0  0  0  0
 23 25  2  0  0  0  0
 24 26  2  0  0  0  0
  8  9  1  0  0  0  0
 18 21  1  0  0  0  0
 25 26  1  0  0  0  0
M  CHG  2   2   1   3  -1
M  END
>  <MolRegNo>
644821

>  <m>
=

>  <Value>
74

>  <Unit>
nM

>  <Type>
Ki

>  <pValue>
7.13

>  <Ligand Efficiency>
0.37

>  <Binding Efficiency>
20.23

>  <Surface Efficiency>
9.87

>  <Assay Index>
482945

>  <Assay Category>


>  <Assay Organism>
Homo sapiens

>  <Target ID>
56

>  <Target Name>
Androgen Receptor

>  <Target Organism>
Homo sapiens

>  <Target Description>
Target is a single protein chain

>  <Sequence Accession>
P10275

>  <Reference>
Bioorg Med Chem 18 (12), 4255-4268 (2010)

>  <Pubmed ID>
20510622

>  <DOI>
10.1016/j.bmc.2010.04.092

$$$$
644824
Actelion Java MolfileCreator 1.0

 28 30  0  0  0  0  0  0  0  0999 V2000
    0.0000   -0.0000   -0.0000 F   0  0  0  0  0  0  0  0  0  0  0  0
   -1.3095   -0.7381   -0.0000 C   0  0  0  0  0  0  0  0  0  0  0  0
   -1.3215   -2.2262   -0.0000 C   0  0  0  0  0  0  0  0  0  0  0  0
   -2.6310    0.0238   -0.0000 C   0  0  0  0  0  0  0  0  0  0  0  0
   -2.6310   -2.9643   -0.0000 C   0  0  0  0  0  0  0  0  0  0  0  0
   -3.9405   -0.7262   -0.0000 C   0  0  0  0  0  0  0  0  0  0  0  0
   -3.9405   -2.2143   -0.0000 C   0  0  0  0  0  0  0  0  0  0  0  0
   -2.6429   -4.4525   -0.0000 C   0  0  0  0  0  0  0  0  0  0  0  0
   -1.3572   -5.1906   -0.0000 N   0  0  0  0  0  0  0  0  0  0  0  0
   -3.9525   -5.1906   -0.0000 C   0  0  0  0  0  0  0  0  0  0  0  0
    0.1310   -5.1429   -0.0000 C   0  0  0  0  0  0  0  0  0  0  0  0
   -5.2620   -4.4287   -0.0000 C   0  0  0  0  0  0  0  0  0  0  0  0
    0.8929   -6.4049   -0.0000 C   0  0  0  0  0  0  0  0  0  0  0  0
    0.8214   -3.8096   -0.0000 C   0  0  0  0  0  0  0  0  0  0  0  0
   -5.2739   -2.9167   -0.0000 O   0  0  0  0  0  0  0  0  0  0  0  0
   -6.5715   -5.1668   -0.0000 C   0  0  0  0  0  0  0  0  0  0  0  0
    2.3810   -6.3573   -0.0000 C   0  0  0  0  0  0  0  0  0  0  0  0
    2.3096   -3.7501   -0.0000 C   0  0  0  0  0  0  0  0  0  0  0  0
   -7.8811   -4.4048   -0.0000 C   0  0  0  0  0  0  0  0  0  0  0  0
   -6.5835   -6.6668   -0.0000 C   0  0  0  0  0  0  0  0  0  0  0  0
    3.1548   -7.6311   -0.0000 N   0  0  0  0  0  0  0  0  0  0  0  0
    3.0834   -5.0239   -0.0000 C   0  0  0  0  0  0  0  0  0  0  0  0
   -9.1906   -5.1429   -0.0000 C   0  0  0  0  0  0  0  0  0  0  0  0
   -7.9049   -7.4049   -0.0000 C   0  0  0  0  0  0  0  0  0  0  0  0
    4.6548   -7.5716   -0.0000 O   0  0  0  0  0  0  0  0  0  0  0  0
    2.4286   -8.9406   -0.0000 O   0  0  0  0  0  0  0  0  0  0  0  0
   -9.2025   -6.6430   -0.0000 C   0  0  0  0  0  0  0  0  0  0  0  0
  -10.5121   -7.3811   -0.0000 C   0  0  0  0  0  0  0  0  0  0  0  0
  1  2  1  0  0  0  0
  2  3  2  0  0  0  0
  2  4  1  0  0  0  0
  3  5  1  0  0  0  0
  4  6  2  0  0  0  0
  5  7  2  0  0  0  0
  5  8  1  0  0  0  0
  8  9  1  0  0  0  0
  8 10  1  0  0  0  0
  9 11  1  0  0  0  0
 10 12  1  0  0  0  0
 11 13  2  0  0  0  0
 11 14  1  0  0  0  0
 12 15  2  0  0  0  0
 12 16  1  0  0  0  0
 13 17  1  0  0  0  0
 14 18  2  0  0  0  0
 16 19  2  0  0  0  0
 16 20  1  0  0  0  0
 17 21  1  0  0  0  0
 17 22  2  0  0  0  0
 19 23  1  0  0  0  0
 20 24  2  0  0  0  0
 21 25  2  0  0  0  0
 21 26  1  0  0  0  0
 23 27  2  0  0  0  0
 27 28  1  0  0  0  0
  6  7  1  0  0  0  0
 18 22  1  0  0  0  0
 24 27  1  0  0  0  0
M  CHG  2  21   1  26  -1
M  END
>  <MolRegNo>
644824

>  <m>
=

>  <Value>
203

>  <Unit>
nM

>  <Type>
Ki

>  <pValue>
6.69

>  <Ligand Efficiency>
0.33

>  <Binding Efficiency>
17.69

>  <Surface Efficiency>
9.26

>  <Assay Index>
482945

>  <Assay Category>


>  <Assay Organism>
Homo sapiens

>  <Target ID>
56

>  <Target Name>
Androgen Receptor

>  <Target Organism>
Homo sapiens

>  <Target Description>
Target is a single protein chain

>  <Sequence Accession>
P10275

>  <Reference>
Bioorg Med Chem 18 (12), 4255-4268 (2010)

>  <Pubmed ID>
20510622

>  <DOI>
10.1016/j.bmc.2010.04.092

$$$$
644861
Actelion Java MolfileCreator 1.0

 26 28  0  0  0  0  0  0  0  0999 V2000
    0.0000   -0.0000   -0.0000 F   0  0  0  0  0  0  0  0  0  0  0  0
   -1.3095   -0.7381   -0.0000 C   0  0  0  0  0  0  0  0  0  0  0  0
   -1.3214   -2.2262   -0.0000 C   0  0  0  0  0  0  0  0  0  0  0  0
   -2.6310    0.0238   -0.0000 C   0  0  0  0  0  0  0  0  0  0  0  0
   -2.6310   -2.9643   -0.0000 C   0  0  0  0  0  0  0  0  0  0  0  0
   -3.9405   -0.7262   -0.0000 C   0  0  0  0  0  0  0  0  0  0  0  0
   -3.9405   -2.2143   -0.0000 C   0  0  0  0  0  0  0  0  0  0  0  0
   -2.6429   -4.4524   -0.0000 C   0  0  0  0  0  0  0  0  0  0  0  0
   -1.3572   -5.1905   -0.0000 N   0  0  0  0  0  0  0  0  0  0  0  0
   -3.9524   -5.1905   -0.0000 C   0  0  0  0  0  0  0  0  0  0  0  0
    0.1310   -5.1429   -0.0000 C   0  0  0  0  0  0  0  0  0  0  0  0
   -5.2620   -4.4286   -0.0000 C   0  0  0  0  0  0  0  0  0  0  0  0
    0.8929   -6.4048   -0.0000 C   0  0  0  0  0  0  0  0  0  0  0  0
    0.8214   -3.8096   -0.0000 C   0  0  0  0  0  0  0  0  0  0  0  0
   -5.2739   -2.9167   -0.0000 O   0  0  0  0  0  0  0  0  0  0  0  0
   -6.5715   -5.1667   -0.0000 C   0  0  0  0  0  0  0  0  0  0  0  0
    2.3810   -6.3572   -0.0000 C   0  0  0  0  0  0  0  0  0  0  0  0
    2.3096   -3.7500   -0.0000 C   0  0  0  0  0  0  0  0  0  0  0  0
   -7.8811   -4.4048   -0.0000 C   0  0  0  0  0  0  0  0  0  0  0  0
   -6.5834   -6.6667   -0.0000 C   0  0  0  0  0  0  0  0  0  0  0  0
    3.0834   -5.0239   -0.0000 C   0  0  0  0  0  0  0  0  0  0  0  0
   -9.1906   -5.1429   -0.0000 C   0  0  0  0  0  0  0  0  0  0  0  0
   -7.9049   -7.4049   -0.0000 C   0  0  0  0  0  0  0  0  0  0  0  0
    4.5715   -4.9643   -0.0000 F   0  0  0  0  0  0  0  0  0  0  0  0
   -9.2025   -6.6429   -0.0000 C   0  0  0  0  0  0  0  0  0  0  0  0
  -10.5120   -7.3810   -0.0000 C   0  0  0  0  0  0  0  0  0  0  0  0
  1  2  1  0  0  0  0
  2  3  2  0  0  0  0
  2  4  1  0  0  0  0
  3  5  1  0  0  0  0
  4  6  2  0  0  0  0
  5  7  2  0  0  0  0
  5  8  1  0  0  0  0
  8  9  1  0  0  0  0
  8 10  1  0  0  0  0
  9 11  1  0  0  0  0
 10 12  1  0  0  0  0
 11 13  2  0  0  0  0
 11 14  1  0  0  0  0
 12 15  2  0  0  0  0
 12 16  1  0  0  0  0
 13 17  1  0  0  0  0
 14 18  2  0  0  0  0
 16 19  2  0  0  0  0
 16 20  1  0  0  0  0
 17 21  2  0  0  0  0
 19 22  1  0  0  0  0
 20 23  2  0  0  0  0
 21 24  1  0  0  0  0
 22 25  2  0  0  0  0
 25 26  1  0  0  0  0
  6  7  1  0  0  0  0
 18 21  1  0  0  0  0
 23 25  1  0  0  0  0
M  END
>  <MolRegNo>
644861

>  <m>
=

>  <Value>
322

>  <Unit>
nM

>  <Type>
Ki

>  <pValue>
6.49

>  <Ligand Efficiency>
0.34

>  <Binding Efficiency>
18.48

>  <Surface Efficiency>
22.31

>  <Assay Index>
482945

>  <Assay Category>


>  <Assay Organism>
Homo sapiens

>  <Target ID>
56

>  <Target Name>
Androgen Receptor

>  <Target Organism>
Homo sapiens

>  <Target Description>
Target is a single protein chain

>  <Sequence Accession>
P10275

>  <Reference>
Bioorg Med Chem 18 (12), 4255-4268 (2010)

>  <Pubmed ID>
20510622

>  <DOI>
10.1016/j.bmc.2010.04.092

$$$$
644862
Actelion Java MolfileCreator 1.0

 27 29  0  0  0  0  0  0  0  0999 V2000
    0.0000   -0.0000   -0.0000 F   0  0  0  0  0  0  0  0  0  0  0  0
   -0.7933    1.2906   -0.0000 C   0  0  0  0  0  0  0  0  0  0  0  0
   -0.0947    2.6167   -0.0000 C   0  0  0  0  0  0  0  0  0  0  0  0
   -2.2970    1.2669   -0.0000 C   0  0  0  0  0  0  0  0  0  0  0  0
    1.3853    2.6759   -0.0000 F   0  0  0  0  0  0  0  0  0  0  0  0
   -0.8999    3.9073   -0.0000 C   0  0  0  0  0  0  0  0  0  0  0  0
   -3.0785    2.5457   -0.0000 C   0  0  0  0  0  0  0  0  0  0  0  0
   -2.4036    3.8718   -0.0000 C   0  0  0  0  0  0  0  0  0  0  0  0
   -4.5822    2.5220   -0.0000 N   0  0  0  0  0  0  0  0  0  0  0  0
   -5.8846    3.2798   -0.0000 C   0  0  0  0  0  0  0  0  0  0  0  0
   -5.8965    4.7835   -0.0000 C   0  0  0  0  0  0  0  0  0  0  0  0
   -7.1871    2.5457   -0.0000 C   0  0  0  0  0  0  0  0  0  0  0  0
   -4.6177    5.5413   -0.0000 C   0  0  0  0  0  0  0  0  0  0  0  0
   -7.1989    5.5294   -0.0000 C   0  0  0  0  0  0  0  0  0  0  0  0
   -8.4895    3.3035   -0.0000 C   0  0  0  0  0  0  0  0  0  0  0  0
   -4.6296    7.0450   -0.0000 C   0  0  0  0  0  0  0  0  0  0  0  0
   -7.2226    7.0332   -0.0000 C   0  0  0  0  0  0  0  0  0  0  0  0
   -8.5014    4.8072   -0.0000 O   0  0  0  0  0  0  0  0  0  0  0  0
   -9.7920    2.5694   -0.0000 C   0  0  0  0  0  0  0  0  0  0  0  0
   -3.3508    7.8028   -0.0000 F   0  0  0  0  0  0  0  0  0  0  0  0
   -5.9438    7.8028   -0.0000 C   0  0  0  0  0  0  0  0  0  0  0  0
  -11.0944    3.3271   -0.0000 C   0  0  0  0  0  0  0  0  0  0  0  0
   -9.8038    1.0775   -0.0000 C   0  0  0  0  0  0  0  0  0  0  0  0
  -12.3968    2.5930   -0.0000 C   0  0  0  0  0  0  0  0  0  0  0  0
  -11.1181    0.3434   -0.0000 C   0  0  0  0  0  0  0  0  0  0  0  0
  -12.4087    1.1012   -0.0000 C   0  0  0  0  0  0  0  0  0  0  0  0
  -13.7111    0.3671   -0.0000 C   0  0  0  0  0  0  0  0  0  0  0  0
  1  2  1  0  0  0  0
  2  3  2  0  0  0  0
  2  4  1  0  0  0  0
  3  5  1  0  0  0  0
  3  6  1  0  0  0  0
  4  7  2  0  0  0  0
  6  8  2  0  0  0  0
  7  9  1  0  0  0  0
  9 10  1  0  0  0  0
 10 11  1  0  0  0  0
 10 12  1  0  0  0  0
 11 13  2  0  0  0  0
 11 14  1  0  0  0  0
 12 15  1  0  0  0  0
 13 16  1  0  0  0  0
 14 17  2  0  0  0  0
 15 18  2  0  0  0  0
 15 19  1  0  0  0  0
 16 20  1  0  0  0  0
 16 21  2  0  0  0  0
 19 22  2  0  0  0  0
 19 23  1  0  0  0  0
 22 24  1  0  0  0  0
 23 25  2  0  0  0  0
 24 26  2  0  0  0  0
 26 27  1  0  0  0  0
  7  8  1  0  0  0  0
 17 21  1  0  0  0  0
 25 26  1  0  0  0  0
M  END
>  <MolRegNo>
644862

>  <m>
=

>  <Value>
1214

>  <Unit>
nM

>  <Type>
Ki

>  <pValue>
5.92

>  <Ligand Efficiency>
0.3

>  <Binding Efficiency>
16.02

>  <Surface Efficiency>
20.33

>  <Assay Index>
482945

>  <Assay Category>


>  <Assay Organism>
Homo sapiens

>  <Target ID>
56

>  <Target Name>
Androgen Receptor

>  <Target Organism>
Homo sapiens

>  <Target Description>
Target is a single protein chain

>  <Sequence Accession>
P10275

>  <Reference>
Bioorg Med Chem 18 (12), 4255-4268 (2010)

>  <Pubmed ID>
20510622

>  <DOI>
10.1016/j.bmc.2010.04.092

$$$$
644903
Actelion Java MolfileCreator 1.0

 28 30  0  0  0  0  0  0  0  0999 V2000
    0.0000   -0.0000   -0.0000 F   0  0  0  0  0  0  0  0  0  0  0  0
   -1.3015   -0.7335   -0.0000 C   0  0  0  0  0  0  0  0  0  0  0  0
   -1.3133   -2.2243   -0.0000 C   0  0  0  0  0  0  0  0  0  0  0  0
   -2.6147    0.0355   -0.0000 C   0  0  0  0  0  0  0  0  0  0  0  0
   -2.6266   -2.9579   -0.0000 C   0  0  0  0  0  0  0  0  0  0  0  0
   -3.9280   -0.7217   -0.0000 C   0  0  0  0  0  0  0  0  0  0  0  0
   -3.9399   -2.2125   -0.0000 C   0  0  0  0  0  0  0  0  0  0  0  0
   -2.6384   -4.4486   -0.0000 C   0  0  0  0  0  0  0  0  0  0  0  0
   -1.3606   -5.1822   -0.0000 N   0  0  0  0  0  0  0  0  0  0  0  0
   -3.9517   -5.1822   -0.0000 C   0  0  0  0  0  0  0  0  0  0  0  0
   -0.0710   -4.4249   -0.0000 C   0  0  0  0  0  0  0  0  0  0  0  0
   -5.2650   -4.4249   -0.0000 C   0  0  0  0  0  0  0  0  0  0  0  0
    1.2068   -5.1585   -0.0000 C   0  0  0  0  0  0  0  0  0  0  0  0
   -0.0828   -2.9105   -0.0000 C   0  0  0  0  0  0  0  0  0  0  0  0
   -5.2768   -2.9105   -0.0000 O   0  0  0  0  0  0  0  0  0  0  0  0
   -6.5664   -5.1585   -0.0000 C   0  0  0  0  0  0  0  0  0  0  0  0
    2.4964   -4.4013   -0.0000 C   0  0  0  0  0  0  0  0  0  0  0  0
    1.1950   -2.1415   -0.0000 C   0  0  0  0  0  0  0  0  0  0  0  0
   -7.8797   -4.4013   -0.0000 C   0  0  0  0  0  0  0  0  0  0  0  0
   -6.5783   -6.6492   -0.0000 C   0  0  0  0  0  0  0  0  0  0  0  0
    2.4846   -2.8869   -0.0000 C   0  0  0  0  0  0  0  0  0  0  0  0
   -9.1812   -5.1467   -0.0000 C   0  0  0  0  0  0  0  0  0  0  0  0
   -7.8915   -7.3946   -0.0000 C   0  0  0  0  0  0  0  0  0  0  0  0
    3.7624   -2.1297   -0.0000 N   0  0  0  0  0  0  0  0  0  0  0  0
   -9.2048   -6.6256   -0.0000 C   0  0  0  0  0  0  0  0  0  0  0  0
    3.7506   -0.6152   -0.0000 O   0  0  0  0  0  0  0  0  0  0  0  0
    5.0520   -2.8632   -0.0000 O   0  0  0  0  0  0  0  0  0  0  0  0
  -10.5181   -7.3591   -0.0000 C   0  0  0  0  0  0  0  0  0  0  0  0
  1  2  1  0  0  0  0
  2  3  2  0  0  0  0
  2  4  1  0  0  0  0
  3  5  1  0  0  0  0
  4  6  2  0  0  0  0
  5  7  2  0  0  0  0
  5  8  1  0  0  0  0
  8  9  1  1  0  0  0
  8 10  1  0  0  0  0
  9 11  1  0  0  0  0
 10 12  1  0  0  0  0
 11 13  2  0  0  0  0
 11 14  1  0  0  0  0
 12 15  2  0  0  0  0
 12 16  1  0  0  0  0
 13 17  1  0  0  0  0
 14 18  2  0  0  0  0
 16 19  2  0  0  0  0
 16 20  1  0  0  0  0
 17 21  2  0  0  0  0
 19 22  1  0  0  0  0
 20 23  2  0  0  0  0
 21 24  1  0  0  0  0
 22 25  2  0  0  0  0
 24 26  2  0  0  0  0
 24 27  1  0  0  0  0
 25 28  1  0  0  0  0
  6  7  1  0  0  0  0
 18 21  1  0  0  0  0
 23 25  1  0  0  0  0
M  CHG  2  24   1  27  -1
M  END
>  <MolRegNo>
644903

>  <m>
=

>  <Value>
24.2

>  <Unit>
nM

>  <Type>
Ki

>  <pValue>
7.62

>  <Ligand Efficiency>
0.37

>  <Binding Efficiency>
20.13

>  <Surface Efficiency>
10.54

>  <Assay Index>
482945

>  <Assay Category>


>  <Assay Organism>
Homo sapiens

>  <Target ID>
56

>  <Target Name>
Androgen Receptor

>  <Target Organism>
Homo sapiens

>  <Target Description>
Target is a single protein chain

>  <Sequence Accession>
P10275

>  <Reference>
Bioorg Med Chem 18 (12), 4255-4268 (2010)

>  <Pubmed ID>
20510622

>  <DOI>
10.1016/j.bmc.2010.04.092

$$$$
684600
Actelion Java MolfileCreator 1.0

 27 30  0  0  1  0  0  0  0  0999 V2000
    0.0000   -0.0000   -0.0000 F   0  0  0  0  0  0  0  0  0  0  0  0
   -1.4810    0.0253   -0.0000 C   0  0  0  0  0  0  0  0  0  0  0  0
   -2.2152    1.3291   -0.0000 F   0  0  0  0  0  0  0  0  0  0  0  0
   -0.7722    1.3291   -0.0000 F   0  0  0  0  0  0  0  0  0  0  0  0
   -2.2532   -1.2279   -0.0000 C   0  0  0  0  0  0  0  0  0  0  0  0
   -1.5443   -2.5064   -0.0000 C   0  0  0  0  0  0  0  0  0  0  0  0
   -3.7342   -1.2026   -0.0000 C   0  0  0  0  0  0  0  0  0  0  0  0
   -0.0760   -2.5190   -0.0000 C   0  0  0  0  0  0  0  0  0  0  0  0
   -2.3165   -3.7596   -0.0000 C   0  0  0  0  0  0  0  0  0  0  0  0
   -4.4938   -2.4431   -0.0000 C   0  0  0  0  0  0  0  0  0  0  0  0
    1.3798   -2.5317   -0.0000 N   0  0  0  0  0  0  0  0  0  0  0  0
   -3.7975   -3.7216   -0.0000 C   0  0  0  0  0  0  0  0  0  0  0  0
   -5.9748   -2.4051   -0.0000 N   0  0  0  0  0  0  0  0  0  0  0  0
   -7.0887   -1.4177   -0.0000 C   0  0  0  0  0  0  0  0  0  0  0  0
   -6.5697   -3.7469   -0.0000 C   0  0  0  0  0  0  0  0  0  0  0  0
   -6.9622    0.0633   -0.0000 O   0  0  0  0  0  0  0  0  0  0  0  0
   -8.3672   -2.1519   -0.0000 C   0  0  0  0  0  0  0  0  0  0  0  0
   -5.8355   -5.0001   -0.0000 O   0  0  0  0  0  0  0  0  0  0  0  0
   -8.0508   -3.5950   -0.0000 C   0  0  0  0  0  0  0  0  0  0  0  0
   -9.6964   -1.4937   -0.0000 C   0  0  0  0  0  0  0  0  0  0  0  0
   -8.9875   -4.7216   -0.0000 C   0  0  0  0  0  0  0  0  0  0  0  0
  -10.2027   -3.0887   -0.0000 O   0  0  0  0  0  0  0  0  0  0  0  0
  -11.0382   -2.1013   -0.0000 C   0  0  0  0  0  0  0  0  0  0  0  0
   -9.6837   -0.0000   -0.0000 C   0  0  0  0  0  0  0  0  0  0  0  0
  -10.4812   -4.6963   -0.0000 C   0  0  0  0  0  0  0  0  0  0  0  0
   -8.3799   -6.0381   -0.0000 C   0  0  0  0  0  0  0  0  0  0  0  0
  -11.3926   -3.5191   -0.0000 N   0  0  0  0  0  0  0  0  0  0  0  0
  1  2  1  0  0  0  0
  2  3  1  0  0  0  0
  2  4  1  0  0  0  0
  2  5  1  0  0  0  0
  5  6  2  0  0  0  0
  5  7  1  0  0  0  0
  6  8  1  0  0  0  0
  6  9  1  0  0  0  0
  7 10  2  0  0  0  0
  8 11  3  0  0  0  0
  9 12  2  0  0  0  0
 10 13  1  0  0  0  0
 13 14  1  0  0  0  0
 13 15  1  0  0  0  0
 14 16  2  0  0  0  0
 17 14  1  1  0  0  0
 15 18  2  0  0  0  0
 19 15  1  1  0  0  0
 17 20  1  0  0  0  0
 19 21  1  0  0  0  0
 20 22  1  0  0  0  0
 20 23  1  0  0  0  0
 20 24  1  1  0  0  0
 21 25  1  0  0  0  0
 21 26  1  1  0  0  0
 23 27  1  0  0  0  0
 10 12  1  0  0  0  0
 17 19  1  0  0  0  0
 21 22  1  0  0  0  0
 25 27  1  0  0  0  0
M  END
>  <MolRegNo>
684600

>  <m>
=

>  <Value>
21

>  <Unit>
nM

>  <Type>
Ki

>  <pValue>
7.68

>  <Ligand Efficiency>
0.39

>  <Binding Efficiency>
20.24

>  <Surface Efficiency>
9.31

>  <Assay Index>
488516

>  <Assay Category>


>  <Assay Organism>
Homo sapiens

>  <Target ID>
56

>  <Target Name>
Androgen Receptor

>  <Target Organism>
Homo sapiens

>  <Target Description>
Target is a single protein chain

>  <Sequence Accession>
P10275

>  <Reference>
Bioorg Med Chem Lett 20 (15), 4491-4495 (2010)

>  <Pubmed ID>
20584610

>  <DOI>
10.1016/j.bmcl.2010.06.034

$$$$
684657
Actelion Java MolfileCreator 1.0

 30 33  0  0  1  0  0  0  0  0999 V2000
    0.0000   -0.0000   -0.0000 F   0  0  0  0  0  0  0  0  0  0  0  0
   -1.4813    0.0253   -0.0000 C   0  0  0  0  0  0  0  0  0  0  0  0
   -2.2156    1.3293   -0.0000 F   0  0  0  0  0  0  0  0  0  0  0  0
   -0.7723    1.3293   -0.0000 F   0  0  0  0  0  0  0  0  0  0  0  0
   -2.2535   -1.2281   -0.0000 C   0  0  0  0  0  0  0  0  0  0  0  0
   -1.5446   -2.5067   -0.0000 C   0  0  0  0  0  0  0  0  0  0  0  0
   -3.7348   -1.2027   -0.0000 C   0  0  0  0  0  0  0  0  0  0  0  0
   -0.0886   -2.5194   -0.0000 C   0  0  0  0  0  0  0  0  0  0  0  0
   -2.3168   -3.7601   -0.0000 C   0  0  0  0  0  0  0  0  0  0  0  0
   -4.4944   -2.4434   -0.0000 C   0  0  0  0  0  0  0  0  0  0  0  0
    1.3673   -2.5321   -0.0000 N   0  0  0  0  0  0  0  0  0  0  0  0
   -3.7981   -3.7221   -0.0000 C   0  0  0  0  0  0  0  0  0  0  0  0
   -5.9757   -2.4055   -0.0000 N   0  0  0  0  0  0  0  0  0  0  0  0
   -7.0898   -1.4180   -0.0000 C   0  0  0  0  0  0  0  0  0  0  0  0
   -6.5707   -3.7475   -0.0000 C   0  0  0  0  0  0  0  0  0  0  0  0
   -6.9632    0.0633   -0.0000 O   0  0  0  0  0  0  0  0  0  0  0  0
   -8.3685   -2.1523   -0.0000 C   0  0  0  0  0  0  0  0  0  0  0  0
   -5.8364   -5.0008   -0.0000 O   0  0  0  0  0  0  0  0  0  0  0  0
   -8.0520   -3.5955   -0.0000 C   0  0  0  0  0  0  0  0  0  0  0  0
   -9.6978   -1.4939   -0.0000 C   0  0  0  0  0  0  0  0  0  0  0  0
   -8.9888   -4.7223   -0.0000 C   0  0  0  0  0  0  0  0  0  0  0  0
  -10.2042   -3.0891   -0.0000 O   0  0  0  0  0  0  0  0  0  0  0  0
  -11.0398   -2.1016   -0.0000 C   0  0  0  0  0  0  0  0  0  0  0  0
   -9.6851   -0.0127   -0.0000 C   0  0  0  0  0  0  0  0  0  0  0  0
  -10.4827   -4.6970   -0.0000 C   0  0  0  0  0  0  0  0  0  0  0  0
   -8.3811   -6.0390   -0.0000 C   0  0  0  0  0  0  0  0  0  0  0  0
  -12.2172   -1.1394   -0.0000 O   0  0  0  0  0  0  0  0  0  0  0  0
  -11.3943   -3.5322   -0.0000 N   0  0  0  0  0  0  0  0  0  0  0  0
  -11.1537   -6.0263   -0.0000 O   0  0  0  0  0  0  0  0  0  0  0  0
  -12.9009   -3.5069   -0.0000 C   0  0  0  0  0  0  0  0  0  0  0  0
  1  2  1  0  0  0  0
  2  3  1  0  0  0  0
  2  4  1  0  0  0  0
  2  5  1  0  0  0  0
  5  6  2  0  0  0  0
  5  7  1  0  0  0  0
  6  8  1  0  0  0  0
  6  9  1  0  0  0  0
  7 10  2  0  0  0  0
  8 11  3  0  0  0  0
  9 12  2  0  0  0  0
 10 13  1  0  0  0  0
 13 14  1  0  0  0  0
 13 15  1  0  0  0  0
 14 16  2  0  0  0  0
 17 14  1  1  0  0  0
 15 18  2  0  0  0  0
 19 15  1  1  0  0  0
 17 20  1  0  0  0  0
 19 21  1  0  0  0  0
 20 22  1  0  0  0  0
 20 23  1  0  0  0  0
 20 24  1  1  0  0  0
 21 25  1  0  0  0  0
 21 26  1  1  0  0  0
 23 27  2  0  0  0  0
 23 28  1  0  0  0  0
 25 29  2  0  0  0  0
 28 30  1  0  0  0  0
 10 12  1  0  0  0  0
 17 19  1  0  0  0  0
 21 22  1  0  0  0  0
 25 28  1  0  0  0  0
M  END
>  <MolRegNo>
684657

>  <m>
=

>  <Value>
20

>  <Unit>
nM

>  <Type>
Ki

>  <pValue>
7.7

>  <Ligand Efficiency>
0.35

>  <Binding Efficiency>
18.27

>  <Surface Efficiency>
7.14

>  <Assay Index>
488516

>  <Assay Category>


>  <Assay Organism>
Homo sapiens

>  <Target ID>
56

>  <Target Name>
Androgen Receptor

>  <Target Organism>
Homo sapiens

>  <Target Description>
Target is a single protein chain

>  <Sequence Accession>
P10275

>  <Reference>
Bioorg Med Chem Lett 20 (15), 4491-4495 (2010)

>  <Pubmed ID>
20584610

>  <DOI>
10.1016/j.bmcl.2010.06.034

$$$$
684658
Actelion Java MolfileCreator 1.0

 33 37  0  0  1  0  0  0  0  0999 V2000
    0.0000   -0.0000   -0.0000 F   0  0  0  0  0  0  0  0  0  0  0  0
   -1.4817    0.0253   -0.0000 C   0  0  0  0  0  0  0  0  0  0  0  0
   -2.2162    1.3297   -0.0000 F   0  0  0  0  0  0  0  0  0  0  0  0
   -0.7725    1.3297   -0.0000 F   0  0  0  0  0  0  0  0  0  0  0  0
   -2.2542   -1.2284   -0.0000 C   0  0  0  0  0  0  0  0  0  0  0  0
   -1.5450   -2.5075   -0.0000 C   0  0  0  0  0  0  0  0  0  0  0  0
   -3.7359   -1.2031   -0.0000 C   0  0  0  0  0  0  0  0  0  0  0  0
   -0.0760   -2.5201   -0.0000 C   0  0  0  0  0  0  0  0  0  0  0  0
   -2.3175   -3.7612   -0.0000 C   0  0  0  0  0  0  0  0  0  0  0  0
   -4.4957   -2.4442   -0.0000 C   0  0  0  0  0  0  0  0  0  0  0  0
    1.3804   -2.5328   -0.0000 N   0  0  0  0  0  0  0  0  0  0  0  0
   -3.7992   -3.7232   -0.0000 C   0  0  0  0  0  0  0  0  0  0  0  0
   -5.9774   -2.4062   -0.0000 N   0  0  0  0  0  0  0  0  0  0  0  0
   -7.0919   -1.4184   -0.0000 C   0  0  0  0  0  0  0  0  0  0  0  0
   -6.5726   -3.7486   -0.0000 C   0  0  0  0  0  0  0  0  0  0  0  0
   -6.9652    0.0633   -0.0000 O   0  0  0  0  0  0  0  0  0  0  0  0
   -8.3709   -2.1529   -0.0000 C   0  0  0  0  0  0  0  0  0  0  0  0
   -5.8381   -5.0023   -0.0000 O   0  0  0  0  0  0  0  0  0  0  0  0
   -8.0543   -3.5966   -0.0000 C   0  0  0  0  0  0  0  0  0  0  0  0
   -9.7007   -1.4944   -0.0000 C   0  0  0  0  0  0  0  0  0  0  0  0
   -8.9915   -4.7237   -0.0000 C   0  0  0  0  0  0  0  0  0  0  0  0
  -10.2072   -3.0900   -0.0000 O   0  0  0  0  0  0  0  0  0  0  0  0
  -11.0430   -2.1022   -0.0000 C   0  0  0  0  0  0  0  0  0  0  0  0
   -9.6880   -0.0000   -0.0000 C   0  0  0  0  0  0  0  0  0  0  0  0
  -10.4858   -4.6984   -0.0000 C   0  0  0  0  0  0  0  0  0  0  0  0
   -8.3709   -6.0408   -0.0000 C   0  0  0  0  0  0  0  0  0  0  0  0
  -12.2208   -1.1398   -0.0000 O   0  0  0  0  0  0  0  0  0  0  0  0
  -11.3976   -3.5333   -0.0000 N   0  0  0  0  0  0  0  0  0  0  0  0
  -11.1570   -6.0281   -0.0000 O   0  0  0  0  0  0  0  0  0  0  0  0
  -12.9047   -3.5079   -0.0000 C   0  0  0  0  0  0  0  0  0  0  0  0
  -13.6772   -4.7870   -0.0000 C   0  0  0  0  0  0  0  0  0  0  0  0
  -14.9816   -5.5089   -0.0000 C   0  0  0  0  0  0  0  0  0  0  0  0
  -13.7025   -6.2687   -0.0000 C   0  0  0  0  0  0  0  0  0  0  0  0
  1  2  1  0  0  0  0
  2  3  1  0  0  0  0
  2  4  1  0  0  0  0
  2  5  1  0  0  0  0
  5  6  2  0  0  0  0
  5  7  1  0  0  0  0
  6  8  1  0  0  0  0
  6  9  1  0  0  0  0
  7 10  2  0  0  0  0
  8 11  3  0  0  0  0
  9 12  2  0  0  0  0
 10 13  1  0  0  0  0
 13 14  1  0  0  0  0
 13 15  1  0  0  0  0
 14 16  2  0  0  0  0
 17 14  1  1  0  0  0
 15 18  2  0  0  0  0
 19 15  1  1  0  0  0
 17 20  1  0  0  0  0
 19 21  1  0  0  0  0
 20 22  1  0  0  0  0
 20 23  1  0  0  0  0
 20 24  1  1  0  0  0
 21 25  1  0  0  0  0
 21 26  1  1  0  0  0
 23 27  2  0  0  0  0
 23 28  1  0  0  0  0
 25 29  2  0  0  0  0
 28 30  1  0  0  0  0
 30 31  1  0  0  0  0
 31 32  1  0  0  0  0
 31 33  1  0  0  0  0
 10 12  1  0  0  0  0
 17 19  1  0  0  0  0
 21 22  1  0  0  0  0
 25 28  1  0  0  0  0
 32 33  1  0  0  0  0
M  END
>  <MolRegNo>
684658

>  <m>
=

>  <Value>
50

>  <Unit>
nM

>  <Type>
Ki

>  <pValue>
7.3

>  <Ligand Efficiency>
0.3

>  <Binding Efficiency>
15.82

>  <Surface Efficiency>
6.77

>  <Assay Index>
488516

>  <Assay Category>


>  <Assay Organism>
Homo sapiens

>  <Target ID>
56

>  <Target Name>
Androgen Receptor

>  <Target Organism>
Homo sapiens

>  <Target Description>
Target is a single protein chain

>  <Sequence Accession>
P10275

>  <Reference>
Bioorg Med Chem Lett 20 (15), 4491-4495 (2010)

>  <Pubmed ID>
20584610

>  <DOI>
10.1016/j.bmcl.2010.06.034

$$$$
684660
Actelion Java MolfileCreator 1.0

 33 36  0  0  1  0  0  0  0  0999 V2000
    0.0000   -0.0000   -0.0000 F   0  0  0  0  0  0  0  0  0  0  0  0
   -1.4802    0.0253   -0.0000 C   0  0  0  0  0  0  0  0  0  0  0  0
   -2.2140    1.3284   -0.0000 F   0  0  0  0  0  0  0  0  0  0  0  0
   -0.7717    1.3284   -0.0000 F   0  0  0  0  0  0  0  0  0  0  0  0
   -2.2519   -1.2272   -0.0000 C   0  0  0  0  0  0  0  0  0  0  0  0
   -1.5435   -2.5050   -0.0000 C   0  0  0  0  0  0  0  0  0  0  0  0
   -3.7321   -1.2019   -0.0000 C   0  0  0  0  0  0  0  0  0  0  0  0
   -0.0886   -2.5176   -0.0000 C   0  0  0  0  0  0  0  0  0  0  0  0
   -2.3152   -3.7574   -0.0000 C   0  0  0  0  0  0  0  0  0  0  0  0
   -4.4912   -2.4417   -0.0000 C   0  0  0  0  0  0  0  0  0  0  0  0
    1.3663   -2.5303   -0.0000 N   0  0  0  0  0  0  0  0  0  0  0  0
   -3.7954   -3.7195   -0.0000 C   0  0  0  0  0  0  0  0  0  0  0  0
   -5.9714   -2.4037   -0.0000 N   0  0  0  0  0  0  0  0  0  0  0  0
   -7.0847   -1.4169   -0.0000 C   0  0  0  0  0  0  0  0  0  0  0  0
   -6.5660   -3.7448   -0.0000 C   0  0  0  0  0  0  0  0  0  0  0  0
   -6.9582    0.0633   -0.0000 O   0  0  0  0  0  0  0  0  0  0  0  0
   -8.3625   -2.1507   -0.0000 C   0  0  0  0  0  0  0  0  0  0  0  0
   -5.8323   -4.9973   -0.0000 O   0  0  0  0  0  0  0  0  0  0  0  0
   -8.0462   -3.5930   -0.0000 C   0  0  0  0  0  0  0  0  0  0  0  0
   -9.6909   -1.4929   -0.0000 C   0  0  0  0  0  0  0  0  0  0  0  0
   -8.9824   -4.7189   -0.0000 C   0  0  0  0  0  0  0  0  0  0  0  0
  -10.1970   -3.0869   -0.0000 O   0  0  0  0  0  0  0  0  0  0  0  0
  -11.0319   -2.1001   -0.0000 C   0  0  0  0  0  0  0  0  0  0  0  0
   -9.6782   -0.0127   -0.0000 C   0  0  0  0  0  0  0  0  0  0  0  0
  -10.4753   -4.6936   -0.0000 C   0  0  0  0  0  0  0  0  0  0  0  0
   -8.3752   -6.0347   -0.0000 C   0  0  0  0  0  0  0  0  0  0  0  0
  -12.2085   -1.1386   -0.0000 O   0  0  0  0  0  0  0  0  0  0  0  0
  -11.3862   -3.5297   -0.0000 N   0  0  0  0  0  0  0  0  0  0  0  0
  -11.1458   -6.0220   -0.0000 O   0  0  0  0  0  0  0  0  0  0  0  0
  -12.4615   -2.4417   -0.0000 O   0  0  0  0  0  0  0  0  0  0  0  0
  -12.8917   -3.5044   -0.0000 C   0  0  0  0  0  0  0  0  0  0  0  0
  -13.6381   -2.1887   -0.0000 C   0  0  0  0  0  0  0  0  0  0  0  0
  -13.6634   -4.7822   -0.0000 C   0  0  0  0  0  0  0  0  0  0  0  0
  1  2  1  0  0  0  0
  2  3  1  0  0  0  0
  2  4  1  0  0  0  0
  2  5  1  0  0  0  0
  5  6  2  0  0  0  0
  5  7  1  0  0  0  0
  6  8  1  0  0  0  0
  6  9  1  0  0  0  0
  7 10  2  0  0  0  0
  8 11  3  0  0  0  0
  9 12  2  0  0  0  0
 10 13  1  0  0  0  0
 13 14  1  0  0  0  0
 13 15  1  0  0  0  0
 14 16  2  0  0  0  0
 17 14  1  1  0  0  0
 15 18  2  0  0  0  0
 19 15  1  1  0  0  0
 17 20  1  0  0  0  0
 19 21  1  0  0  0  0
 20 22  1  0  0  0  0
 20 23  1  0  0  0  0
 20 24  1  1  0  0  0
 21 25  1  0  0  0  0
 21 26  1  1  0  0  0
 23 27  2  0  0  0  0
 23 28  1  0  0  0  0
 25 29  2  0  0  0  0
 28 30  1  0  0  0  0
 28 31  1  0  0  0  0
 31 32  1  0  0  0  0
 31 33  1  0  0  0  0
 10 12  1  0  0  0  0
 17 19  1  0  0  0  0
 21 22  1  0  0  0  0
 25 28  1  0  0  0  0
M  CHG  2  28   1  30  -1
M  END
>  <MolRegNo>
684660

>  <m>
=

>  <Value>
3600

>  <Unit>
nM

>  <Type>
Ki

>  <pValue>
5.44

>  <Ligand Efficiency>
0.23

>  <Binding Efficiency>
11.7

>  <Surface Efficiency>
4.27

>  <Assay Index>
488516

>  <Assay Category>


>  <Assay Organism>
Homo sapiens

>  <Target ID>
56

>  <Target Name>
Androgen Receptor

>  <Target Organism>
Homo sapiens

>  <Target Description>
Target is a single protein chain

>  <Sequence Accession>
P10275

>  <Reference>
Bioorg Med Chem Lett 20 (15), 4491-4495 (2010)

>  <Pubmed ID>
20584610

>  <DOI>
10.1016/j.bmcl.2010.06.034

$$$$
684726
Actelion Java MolfileCreator 1.0

 32 35  0  0  1  0  0  0  0  0999 V2000
    0.0000   -0.0000   -0.0000 F   0  0  0  0  0  0  0  0  0  0  0  0
   -1.4810    0.0253   -0.0000 C   0  0  0  0  0  0  0  0  0  0  0  0
   -2.2152    1.3291   -0.0000 F   0  0  0  0  0  0  0  0  0  0  0  0
   -0.7722    1.3291   -0.0000 F   0  0  0  0  0  0  0  0  0  0  0  0
   -2.2532   -1.2279   -0.0000 C   0  0  0  0  0  0  0  0  0  0  0  0
   -1.5443   -2.5064   -0.0000 C   0  0  0  0  0  0  0  0  0  0  0  0
   -3.7343   -1.2026   -0.0000 C   0  0  0  0  0  0  0  0  0  0  0  0
   -0.0886   -2.5190   -0.0000 C   0  0  0  0  0  0  0  0  0  0  0  0
   -2.3165   -3.7596   -0.0000 C   0  0  0  0  0  0  0  0  0  0  0  0
   -4.4938   -2.4431   -0.0000 C   0  0  0  0  0  0  0  0  0  0  0  0
    1.3671   -2.5317   -0.0000 N   0  0  0  0  0  0  0  0  0  0  0  0
   -3.7975   -3.7216   -0.0000 C   0  0  0  0  0  0  0  0  0  0  0  0
   -5.9748   -2.4051   -0.0000 N   0  0  0  0  0  0  0  0  0  0  0  0
   -7.0887   -1.4177   -0.0000 C   0  0  0  0  0  0  0  0  0  0  0  0
   -6.5698   -3.7469   -0.0000 C   0  0  0  0  0  0  0  0  0  0  0  0
   -6.9622    0.0633   -0.0000 O   0  0  0  0  0  0  0  0  0  0  0  0
   -8.3673   -2.1519   -0.0000 C   0  0  0  0  0  0  0  0  0  0  0  0
   -5.8356   -5.0001   -0.0000 O   0  0  0  0  0  0  0  0  0  0  0  0
   -8.0508   -3.5950   -0.0000 C   0  0  0  0  0  0  0  0  0  0  0  0
   -9.6964   -1.4937   -0.0000 C   0  0  0  0  0  0  0  0  0  0  0  0
   -8.9875   -4.7216   -0.0000 C   0  0  0  0  0  0  0  0  0  0  0  0
  -10.2027   -3.0887   -0.0000 O   0  0  0  0  0  0  0  0  0  0  0  0
  -11.0382   -2.1013   -0.0000 C   0  0  0  0  0  0  0  0  0  0  0  0
   -9.6837   -0.0127   -0.0000 C   0  0  0  0  0  0  0  0  0  0  0  0
  -10.4812   -4.6963   -0.0000 C   0  0  0  0  0  0  0  0  0  0  0  0
   -8.3799   -6.0381   -0.0000 C   0  0  0  0  0  0  0  0  0  0  0  0
  -12.2154   -1.1393   -0.0000 O   0  0  0  0  0  0  0  0  0  0  0  0
  -11.3926   -3.5317   -0.0000 N   0  0  0  0  0  0  0  0  0  0  0  0
  -11.1521   -6.0254   -0.0000 O   0  0  0  0  0  0  0  0  0  0  0  0
  -12.8990   -3.5064   -0.0000 C   0  0  0  0  0  0  0  0  0  0  0  0
  -13.6458   -2.1899   -0.0000 C   0  0  0  0  0  0  0  0  0  0  0  0
  -13.6712   -4.7849   -0.0000 C   0  0  0  0  0  0  0  0  0  0  0  0
  1  2  1  0  0  0  0
  2  3  1  0  0  0  0
  2  4  1  0  0  0  0
  2  5  1  0  0  0  0
  5  6  2  0  0  0  0
  5  7  1  0  0  0  0
  6  8  1  0  0  0  0
  6  9  1  0  0  0  0
  7 10  2  0  0  0  0
  8 11  3  0  0  0  0
  9 12  2  0  0  0  0
 10 13  1  0  0  0  0
 13 14  1  0  0  0  0
 13 15  1  0  0  0  0
 14 16  2  0  0  0  0
 17 14  1  1  0  0  0
 15 18  2  0  0  0  0
 19 15  1  1  0  0  0
 17 20  1  0  0  0  0
 19 21  1  0  0  0  0
 20 22  1  0  0  0  0
 20 23  1  0  0  0  0
 20 24  1  1  0  0  0
 21 25  1  0  0  0  0
 21 26  1  1  0  0  0
 23 27  2  0  0  0  0
 23 28  1  0  0  0  0
 25 29  2  0  0  0  0
 28 30  1  0  0  0  0
 30 31  1  0  0  0  0
 30 32  1  0  0  0  0
 10 12  1  0  0  0  0
 17 19  1  0  0  0  0
 21 22  1  0  0  0  0
 25 28  1  0  0  0  0
M  END
>  <MolRegNo>
684726

>  <m>
=

>  <Value>
14

>  <Unit>
nM

>  <Type>
Ki

>  <pValue>
7.85

>  <Ligand Efficiency>
0.34

>  <Binding Efficiency>
17.48

>  <Surface Efficiency>
7.29

>  <Assay Index>
488516

>  <Assay Category>


>  <Assay Organism>
Homo sapiens

>  <Target ID>
56

>  <Target Name>
Androgen Receptor

>  <Target Organism>
Homo sapiens

>  <Target Description>
Target is a single protein chain

>  <Sequence Accession>
P10275

>  <Reference>
Bioorg Med Chem Lett 20 (15), 4491-4495 (2010)

>  <Pubmed ID>
20584610

>  <DOI>
10.1016/j.bmcl.2010.06.034

$$$$
684727
Actelion Java MolfileCreator 1.0

 28 31  0  0  1  0  0  0  0  0999 V2000
    0.0000   -0.0000   -0.0000 F   0  0  0  0  0  0  0  0  0  0  0  0
   -1.4823    0.0253   -0.0000 C   0  0  0  0  0  0  0  0  0  0  0  0
   -2.2171    1.3302   -0.0000 F   0  0  0  0  0  0  0  0  0  0  0  0
   -0.7728    1.3302   -0.0000 F   0  0  0  0  0  0  0  0  0  0  0  0
   -2.2551   -1.2289   -0.0000 C   0  0  0  0  0  0  0  0  0  0  0  0
   -1.5456   -2.5084   -0.0000 C   0  0  0  0  0  0  0  0  0  0  0  0
   -3.7373   -1.2035   -0.0000 C   0  0  0  0  0  0  0  0  0  0  0  0
   -0.0887   -2.5211   -0.0000 C   0  0  0  0  0  0  0  0  0  0  0  0
   -2.3184   -3.7627   -0.0000 C   0  0  0  0  0  0  0  0  0  0  0  0
   -4.4974   -2.4451   -0.0000 C   0  0  0  0  0  0  0  0  0  0  0  0
    1.3682   -2.5338   -0.0000 N   0  0  0  0  0  0  0  0  0  0  0  0
   -3.8007   -3.7246   -0.0000 C   0  0  0  0  0  0  0  0  0  0  0  0
   -5.9797   -2.4071   -0.0000 N   0  0  0  0  0  0  0  0  0  0  0  0
   -7.0946   -1.4189   -0.0000 C   0  0  0  0  0  0  0  0  0  0  0  0
   -6.5751   -3.7500   -0.0000 C   0  0  0  0  0  0  0  0  0  0  0  0
   -6.9679    0.0633   -0.0000 O   0  0  0  0  0  0  0  0  0  0  0  0
   -8.3741   -2.1537   -0.0000 C   0  0  0  0  0  0  0  0  0  0  0  0
   -5.8404   -5.0042   -0.0000 O   0  0  0  0  0  0  0  0  0  0  0  0
   -8.0574   -3.5980   -0.0000 C   0  0  0  0  0  0  0  0  0  0  0  0
   -9.7044   -1.4949   -0.0000 C   0  0  0  0  0  0  0  0  0  0  0  0
   -8.9949   -4.7255   -0.0000 C   0  0  0  0  0  0  0  0  0  0  0  0
  -10.2111   -3.0912   -0.0000 O   0  0  0  0  0  0  0  0  0  0  0  0
  -11.0473   -2.1030   -0.0000 C   0  0  0  0  0  0  0  0  0  0  0  0
   -9.6917   -0.0127   -0.0000 C   0  0  0  0  0  0  0  0  0  0  0  0
  -10.4898   -4.7002   -0.0000 C   0  0  0  0  0  0  0  0  0  0  0  0
   -8.3868   -6.0431   -0.0000 C   0  0  0  0  0  0  0  0  0  0  0  0
  -11.4020   -3.5219   -0.0000 N   0  0  0  0  0  0  0  0  0  0  0  0
  -12.8589   -3.8260   -0.0000 O   0  0  0  0  0  0  0  0  0  0  0  0
  1  2  1  0  0  0  0
  2  3  1  0  0  0  0
  2  4  1  0  0  0  0
  2  5  1  0  0  0  0
  5  6  2  0  0  0  0
  5  7  1  0  0  0  0
  6  8  1  0  0  0  0
  6  9  1  0  0  0  0
  7 10  2  0  0  0  0
  8 11  3  0  0  0  0
  9 12  2  0  0  0  0
 10 13  1  0  0  0  0
 13 14  1  0  0  0  0
 13 15  1  0  0  0  0
 14 16  2  0  0  0  0
 17 14  1  1  0  0  0
 15 18  2  0  0  0  0
 19 15  1  1  0  0  0
 17 20  1  0  0  0  0
 19 21  1  0  0  0  0
 20 22  1  0  0  0  0
 20 23  1  0  0  0  0
 20 24  1  1  0  0  0
 21 25  1  0  0  0  0
 21 26  1  1  0  0  0
 23 27  1  0  0  0  0
 27 28  1  0  0  0  0
 10 12  1  0  0  0  0
 17 19  1  0  0  0  0
 21 22  1  0  0  0  0
 25 27  1  0  0  0  0
M  END
>  <MolRegNo>
684727

>  <m>
=

>  <Value>
37

>  <Unit>
nM

>  <Type>
Ki

>  <pValue>
7.43

>  <Ligand Efficiency>
0.36

>  <Binding Efficiency>
18.8

>  <Surface Efficiency>
7.92

>  <Assay Index>
488516

>  <Assay Category>


>  <Assay Organism>
Homo sapiens

>  <Target ID>
56

>  <Target Name>
Androgen Receptor

>  <Target Organism>
Homo sapiens

>  <Target Description>
Target is a single protein chain

>  <Sequence Accession>
P10275

>  <Reference>
Bioorg Med Chem Lett 20 (15), 4491-4495 (2010)

>  <Pubmed ID>
20584610

>  <DOI>
10.1016/j.bmcl.2010.06.034

$$$$
684728
Actelion Java MolfileCreator 1.0

 29 32  0  0  1  0  0  0  0  0999 V2000
    0.0000   -0.0000   -0.0000 F   0  0  0  0  0  0  0  0  0  0  0  0
   -1.4814    0.0253   -0.0000 C   0  0  0  0  0  0  0  0  0  0  0  0
   -2.2158    1.3295   -0.0000 F   0  0  0  0  0  0  0  0  0  0  0  0
   -0.7724    1.3295   -0.0000 F   0  0  0  0  0  0  0  0  0  0  0  0
   -2.2538   -1.2282   -0.0000 C   0  0  0  0  0  0  0  0  0  0  0  0
   -1.5447   -2.5070   -0.0000 C   0  0  0  0  0  0  0  0  0  0  0  0
   -3.7352   -1.2028   -0.0000 C   0  0  0  0  0  0  0  0  0  0  0  0
   -0.0760   -2.5196   -0.0000 C   0  0  0  0  0  0  0  0  0  0  0  0
   -2.3171   -3.7605   -0.0000 C   0  0  0  0  0  0  0  0  0  0  0  0
   -4.4948   -2.4437   -0.0000 C   0  0  0  0  0  0  0  0  0  0  0  0
    1.3801   -2.5323   -0.0000 N   0  0  0  0  0  0  0  0  0  0  0  0
   -3.7985   -3.7225   -0.0000 C   0  0  0  0  0  0  0  0  0  0  0  0
   -5.9762   -2.4057   -0.0000 N   0  0  0  0  0  0  0  0  0  0  0  0
   -7.0905   -1.4181   -0.0000 C   0  0  0  0  0  0  0  0  0  0  0  0
   -6.5713   -3.7478   -0.0000 C   0  0  0  0  0  0  0  0  0  0  0  0
   -6.9638    0.0633   -0.0000 O   0  0  0  0  0  0  0  0  0  0  0  0
   -8.3693   -2.1525   -0.0000 C   0  0  0  0  0  0  0  0  0  0  0  0
   -5.8370   -5.0013   -0.0000 O   0  0  0  0  0  0  0  0  0  0  0  0
   -8.0527   -3.5959   -0.0000 C   0  0  0  0  0  0  0  0  0  0  0  0
   -9.6987   -1.4941   -0.0000 C   0  0  0  0  0  0  0  0  0  0  0  0
   -8.9897   -4.7228   -0.0000 C   0  0  0  0  0  0  0  0  0  0  0  0
  -10.2052   -3.0894   -0.0000 O   0  0  0  0  0  0  0  0  0  0  0  0
  -11.0409   -2.1018   -0.0000 C   0  0  0  0  0  0  0  0  0  0  0  0
   -9.6861   -0.0127   -0.0000 C   0  0  0  0  0  0  0  0  0  0  0  0
  -10.4838   -4.6974   -0.0000 C   0  0  0  0  0  0  0  0  0  0  0  0
   -8.3819   -6.0396   -0.0000 C   0  0  0  0  0  0  0  0  0  0  0  0
  -11.3954   -3.5199   -0.0000 N   0  0  0  0  0  0  0  0  0  0  0  0
  -12.8768   -3.5072   -0.0000 O   0  0  0  0  0  0  0  0  0  0  0  0
  -13.6365   -2.1904   -0.0000 C   0  0  0  0  0  0  0  0  0  0  0  0
  1  2  1  0  0  0  0
  2  3  1  0  0  0  0
  2  4  1  0  0  0  0
  2  5  1  0  0  0  0
  5  6  2  0  0  0  0
  5  7  1  0  0  0  0
  6  8  1  0  0  0  0
  6  9  1  0  0  0  0
  7 10  2  0  0  0  0
  8 11  3  0  0  0  0
  9 12  2  0  0  0  0
 10 13  1  0  0  0  0
 13 14  1  0  0  0  0
 13 15  1  0  0  0  0
 14 16  2  0  0  0  0
 17 14  1  1  0  0  0
 15 18  2  0  0  0  0
 19 15  1  1  0  0  0
 17 20  1  0  0  0  0
 19 21  1  0  0  0  0
 20 22  1  0  0  0  0
 20 23  1  0  0  0  0
 20 24  1  1  0  0  0
 21 25  1  0  0  0  0
 21 26  1  1  0  0  0
 23 27  1  0  0  0  0
 27 28  1  0  0  0  0
 28 29  1  0  0  0  0
 10 12  1  0  0  0  0
 17 19  1  0  0  0  0
 21 22  1  0  0  0  0
 25 27  1  0  0  0  0
M  END
>  <MolRegNo>
684728

>  <m>
=

>  <Value>
3.7

>  <Unit>
nM

>  <Type>
Ki

>  <pValue>
8.43

>  <Ligand Efficiency>
0.4

>  <Binding Efficiency>
20.6

>  <Surface Efficiency>
10.17

>  <Assay Index>
488516

>  <Assay Category>


>  <Assay Organism>
Homo sapiens

>  <Target ID>
56

>  <Target Name>
Androgen Receptor

>  <Target Organism>
Homo sapiens

>  <Target Description>
Target is a single protein chain

>  <Sequence Accession>
P10275

>  <Reference>
Bioorg Med Chem Lett 20 (15), 4491-4495 (2010)

>  <Pubmed ID>
20584610

>  <DOI>
10.1016/j.bmcl.2010.06.034

$$$$
683711
Actelion Java MolfileCreator 1.0

 30 33  0  0  1  0  0  0  0  0999 V2000
    0.0000   -0.0000   -0.0000 F   0  0  0  0  0  0  0  0  0  0  0  0
   -1.4824    0.0253   -0.0000 C   0  0  0  0  0  0  0  0  0  0  0  0
   -2.2173    1.3304   -0.0000 F   0  0  0  0  0  0  0  0  0  0  0  0
   -0.7729    1.3304   -0.0000 F   0  0  0  0  0  0  0  0  0  0  0  0
   -2.2553   -1.2290   -0.0000 C   0  0  0  0  0  0  0  0  0  0  0  0
   -1.5458   -2.5087   -0.0000 C   0  0  0  0  0  0  0  0  0  0  0  0
   -3.7378   -1.2037   -0.0000 C   0  0  0  0  0  0  0  0  0  0  0  0
   -0.0887   -2.5214   -0.0000 C   0  0  0  0  0  0  0  0  0  0  0  0
   -2.3187   -3.7631   -0.0000 C   0  0  0  0  0  0  0  0  0  0  0  0
   -4.4980   -2.4454   -0.0000 C   0  0  0  0  0  0  0  0  0  0  0  0
    1.3684   -2.5341   -0.0000 N   0  0  0  0  0  0  0  0  0  0  0  0
   -3.8011   -3.7251   -0.0000 C   0  0  0  0  0  0  0  0  0  0  0  0
   -5.9804   -2.4074   -0.0000 N   0  0  0  0  0  0  0  0  0  0  0  0
   -7.0954   -1.4191   -0.0000 C   0  0  0  0  0  0  0  0  0  0  0  0
   -6.5760   -3.7504   -0.0000 C   0  0  0  0  0  0  0  0  0  0  0  0
   -6.9687    0.0634   -0.0000 O   0  0  0  0  0  0  0  0  0  0  0  0
   -8.3752   -2.1540   -0.0000 C   0  0  0  0  0  0  0  0  0  0  0  0
   -5.8411   -5.0048   -0.0000 O   0  0  0  0  0  0  0  0  0  0  0  0
   -8.0584   -3.5984   -0.0000 C   0  0  0  0  0  0  0  0  0  0  0  0
   -9.7056   -1.4951   -0.0000 C   0  0  0  0  0  0  0  0  0  0  0  0
   -8.9960   -4.7261   -0.0000 C   0  0  0  0  0  0  0  0  0  0  0  0
  -10.2124   -3.0916   -0.0000 O   0  0  0  0  0  0  0  0  0  0  0  0
  -11.0486   -2.1033   -0.0000 C   0  0  0  0  0  0  0  0  0  0  0  0
   -9.6929   -0.0127   -0.0000 C   0  0  0  0  0  0  0  0  0  0  0  0
  -10.4911   -4.7007   -0.0000 C   0  0  0  0  0  0  0  0  0  0  0  0
   -8.3878   -6.0438   -0.0000 C   0  0  0  0  0  0  0  0  0  0  0  0
  -11.4034   -3.5224   -0.0000 N   0  0  0  0  0  0  0  0  0  0  0  0
  -12.8858   -3.5604   -0.0000 C   0  0  0  0  0  0  0  0  0  0  0  0
  -13.6080   -4.8654   -0.0000 C   0  0  0  0  0  0  0  0  0  0  0  0
  -15.1158   -4.9035   -0.0000 C   0  0  0  0  0  0  0  0  0  0  0  0
  1  2  1  0  0  0  0
  2  3  1  0  0  0  0
  2  4  1  0  0  0  0
  2  5  1  0  0  0  0
  5  6  2  0  0  0  0
  5  7  1  0  0  0  0
  6  8  1  0  0  0  0
  6  9  1  0  0  0  0
  7 10  2  0  0  0  0
  8 11  3  0  0  0  0
  9 12  2  0  0  0  0
 10 13  1  0  0  0  0
 13 14  1  0  0  0  0
 13 15  1  0  0  0  0
 14 16  2  0  0  0  0
 17 14  1  1  0  0  0
 15 18  2  0  0  0  0
 19 15  1  1  0  0  0
 17 20  1  0  0  0  0
 19 21  1  0  0  0  0
 20 22  1  0  0  0  0
 20 23  1  0  0  0  0
 20 24  1  1  0  0  0
 21 25  1  0  0  0  0
 21 26  1  1  0  0  0
 23 27  1  0  0  0  0
 27 28  1  0  0  0  0
 28 29  1  0  0  0  0
 29 30  1  0  0  0  0
 10 12  1  0  0  0  0
 17 19  1  0  0  0  0
 21 22  1  0  0  0  0
 25 27  1  0  0  0  0
M  END
>  <MolRegNo>
683711

>  <m>
=

>  <Value>
14

>  <Unit>
nM

>  <Type>
Ki

>  <pValue>
7.85

>  <Ligand Efficiency>
0.36

>  <Binding Efficiency>
18.64

>  <Surface Efficiency>
10.67

>  <Assay Index>
488516

>  <Assay Category>


>  <Assay Organism>
Homo sapiens

>  <Target ID>
56

>  <Target Name>
Androgen Receptor

>  <Target Organism>
Homo sapiens

>  <Target Description>
Target is a single protein chain

>  <Sequence Accession>
P10275

>  <Reference>
Bioorg Med Chem Lett 20 (15), 4491-4495 (2010)

>  <Pubmed ID>
20584610

>  <DOI>
10.1016/j.bmcl.2010.06.034

$$$$
683712
Actelion Java MolfileCreator 1.0

 31 34  0  0  1  0  0  0  0  0999 V2000
    0.0000   -0.0000   -0.0000 F   0  0  0  0  0  0  0  0  0  0  0  0
   -1.4815    0.0253   -0.0000 C   0  0  0  0  0  0  0  0  0  0  0  0
   -2.2159    1.3295   -0.0000 F   0  0  0  0  0  0  0  0  0  0  0  0
   -0.7724    1.3295   -0.0000 F   0  0  0  0  0  0  0  0  0  0  0  0
   -2.2539   -1.2282   -0.0000 C   0  0  0  0  0  0  0  0  0  0  0  0
   -1.5448   -2.5071   -0.0000 C   0  0  0  0  0  0  0  0  0  0  0  0
   -3.7353   -1.2029   -0.0000 C   0  0  0  0  0  0  0  0  0  0  0  0
   -0.0760   -2.5198   -0.0000 C   0  0  0  0  0  0  0  0  0  0  0  0
   -2.3172   -3.7607   -0.0000 C   0  0  0  0  0  0  0  0  0  0  0  0
   -4.4951   -2.4438   -0.0000 C   0  0  0  0  0  0  0  0  0  0  0  0
    1.3802   -2.5324   -0.0000 N   0  0  0  0  0  0  0  0  0  0  0  0
   -3.7987   -3.7227   -0.0000 C   0  0  0  0  0  0  0  0  0  0  0  0
   -5.9766   -2.4058   -0.0000 N   0  0  0  0  0  0  0  0  0  0  0  0
   -7.0908   -1.4182   -0.0000 C   0  0  0  0  0  0  0  0  0  0  0  0
   -6.5717   -3.7480   -0.0000 C   0  0  0  0  0  0  0  0  0  0  0  0
   -6.9642    0.0633   -0.0000 O   0  0  0  0  0  0  0  0  0  0  0  0
   -8.3697   -2.1526   -0.0000 C   0  0  0  0  0  0  0  0  0  0  0  0
   -5.8373   -5.0016   -0.0000 O   0  0  0  0  0  0  0  0  0  0  0  0
   -8.0532   -3.5961   -0.0000 C   0  0  0  0  0  0  0  0  0  0  0  0
   -9.6992   -1.4941   -0.0000 C   0  0  0  0  0  0  0  0  0  0  0  0
   -8.9902   -4.7230   -0.0000 C   0  0  0  0  0  0  0  0  0  0  0  0
  -10.2057   -3.0896   -0.0000 O   0  0  0  0  0  0  0  0  0  0  0  0
  -11.0414   -2.1019   -0.0000 C   0  0  0  0  0  0  0  0  0  0  0  0
   -9.6866   -0.0127   -0.0000 C   0  0  0  0  0  0  0  0  0  0  0  0
  -10.4843   -4.6977   -0.0000 C   0  0  0  0  0  0  0  0  0  0  0  0
   -8.3824   -6.0399   -0.0000 C   0  0  0  0  0  0  0  0  0  0  0  0
  -11.3960   -3.5201   -0.0000 N   0  0  0  0  0  0  0  0  0  0  0  0
  -12.8775   -3.4694   -0.0000 C   0  0  0  0  0  0  0  0  0  0  0  0
  -13.5992   -2.1399   -0.0000 O   0  0  0  0  0  0  0  0  0  0  0  0
  -13.6752   -4.7357   -0.0000 C   0  0  0  0  0  0  0  0  0  0  0  0
  -15.1820   -4.6850   -0.0000 C   0  0  0  0  0  0  0  0  0  0  0  0
  1  2  1  0  0  0  0
  2  3  1  0  0  0  0
  2  4  1  0  0  0  0
  2  5  1  0  0  0  0
  5  6  2  0  0  0  0
  5  7  1  0  0  0  0
  6  8  1  0  0  0  0
  6  9  1  0  0  0  0
  7 10  2  0  0  0  0
  8 11  3  0  0  0  0
  9 12  2  0  0  0  0
 10 13  1  0  0  0  0
 13 14  1  0  0  0  0
 13 15  1  0  0  0  0
 14 16  2  0  0  0  0
 17 14  1  1  0  0  0
 15 18  2  0  0  0  0
 19 15  1  1  0  0  0
 17 20  1  0  0  0  0
 19 21  1  0  0  0  0
 20 22  1  0  0  0  0
 20 23  1  0  0  0  0
 20 24  1  1  0  0  0
 21 25  1  0  0  0  0
 21 26  1  1  0  0  0
 23 27  1  0  0  0  0
 27 28  1  0  0  0  0
 28 29  2  0  0  0  0
 28 30  1  0  0  0  0
 30 31  1  0  0  0  0
 10 12  1  0  0  0  0
 17 19  1  0  0  0  0
 21 22  1  0  0  0  0
 25 27  1  0  0  0  0
M  END
>  <MolRegNo>
683712

>  <m>
=

>  <Value>
84

>  <Unit>
nM

>  <Type>
Ki

>  <pValue>
7.08

>  <Ligand Efficiency>
0.31

>  <Binding Efficiency>
16.25

>  <Surface Efficiency>
7.8

>  <Assay Index>
488516

>  <Assay Category>


>  <Assay Organism>
Homo sapiens

>  <Target ID>
56

>  <Target Name>
Androgen Receptor

>  <Target Organism>
Homo sapiens

>  <Target Description>
Target is a single protein chain

>  <Sequence Accession>
P10275

>  <Reference>
Bioorg Med Chem Lett 20 (15), 4491-4495 (2010)

>  <Pubmed ID>
20584610

>  <DOI>
10.1016/j.bmcl.2010.06.034

$$$$
683713
Actelion Java MolfileCreator 1.0

 32 35  0  0  1  0  0  0  0  0999 V2000
    0.0000   -0.0000   -0.0000 F   0  0  0  0  0  0  0  0  0  0  0  0
   -1.4824    0.0253   -0.0000 C   0  0  0  0  0  0  0  0  0  0  0  0
   -2.2173    1.3304   -0.0000 F   0  0  0  0  0  0  0  0  0  0  0  0
   -0.7729    1.3304   -0.0000 F   0  0  0  0  0  0  0  0  0  0  0  0
   -2.2553   -1.2290   -0.0000 C   0  0  0  0  0  0  0  0  0  0  0  0
   -1.5458   -2.5087   -0.0000 C   0  0  0  0  0  0  0  0  0  0  0  0
   -3.7378   -1.2037   -0.0000 C   0  0  0  0  0  0  0  0  0  0  0  0
   -0.0887   -2.5214   -0.0000 C   0  0  0  0  0  0  0  0  0  0  0  0
   -2.3187   -3.7631   -0.0000 C   0  0  0  0  0  0  0  0  0  0  0  0
   -4.4980   -2.4454   -0.0000 C   0  0  0  0  0  0  0  0  0  0  0  0
    1.3684   -2.5341   -0.0000 N   0  0  0  0  0  0  0  0  0  0  0  0
   -3.8011   -3.7251   -0.0000 C   0  0  0  0  0  0  0  0  0  0  0  0
   -5.9805   -2.4074   -0.0000 N   0  0  0  0  0  0  0  0  0  0  0  0
   -7.0954   -1.4191   -0.0000 C   0  0  0  0  0  0  0  0  0  0  0  0
   -6.5760   -3.7505   -0.0000 C   0  0  0  0  0  0  0  0  0  0  0  0
   -6.9687    0.0634   -0.0000 O   0  0  0  0  0  0  0  0  0  0  0  0
   -8.3752   -2.1540   -0.0000 C   0  0  0  0  0  0  0  0  0  0  0  0
   -5.8411   -5.0048   -0.0000 O   0  0  0  0  0  0  0  0  0  0  0  0
   -8.0584   -3.5984   -0.0000 C   0  0  0  0  0  0  0  0  0  0  0  0
   -9.7056   -1.4951   -0.0000 C   0  0  0  0  0  0  0  0  0  0  0  0
   -8.9960   -4.7261   -0.0000 C   0  0  0  0  0  0  0  0  0  0  0  0
  -10.2124   -3.0916   -0.0000 O   0  0  0  0  0  0  0  0  0  0  0  0
  -11.0486   -2.1033   -0.0000 C   0  0  0  0  0  0  0  0  0  0  0  0
   -9.6929   -0.0127   -0.0000 C   0  0  0  0  0  0  0  0  0  0  0  0
  -10.4911   -4.7007   -0.0000 C   0  0  0  0  0  0  0  0  0  0  0  0
   -8.3878   -6.0438   -0.0000 C   0  0  0  0  0  0  0  0  0  0  0  0
  -11.4034   -3.5224   -0.0000 N   0  0  0  0  0  0  0  0  0  0  0  0
  -12.8858   -3.4717   -0.0000 C   0  0  0  0  0  0  0  0  0  0  0  0
  -13.6081   -2.1413   -0.0000 O   0  0  0  0  0  0  0  0  0  0  0  0
  -13.6841   -4.7387   -0.0000 C   0  0  0  0  0  0  0  0  0  0  0  0
  -15.1919   -4.6881   -0.0000 C   0  0  0  0  0  0  0  0  0  0  0  0
  -12.9872   -6.0438   -0.0000 C   0  0  0  0  0  0  0  0  0  0  0  0
  1  2  1  0  0  0  0
  2  3  1  0  0  0  0
  2  4  1  0  0  0  0
  2  5  1  0  0  0  0
  5  6  2  0  0  0  0
  5  7  1  0  0  0  0
  6  8  1  0  0  0  0
  6  9  1  0  0  0  0
  7 10  2  0  0  0  0
  8 11  3  0  0  0  0
  9 12  2  0  0  0  0
 10 13  1  0  0  0  0
 13 14  1  0  0  0  0
 13 15  1  0  0  0  0
 14 16  2  0  0  0  0
 17 14  1  1  0  0  0
 15 18  2  0  0  0  0
 19 15  1  1  0  0  0
 17 20  1  0  0  0  0
 19 21  1  0  0  0  0
 20 22  1  0  0  0  0
 20 23  1  0  0  0  0
 20 24  1  1  0  0  0
 21 25  1  0  0  0  0
 21 26  1  1  0  0  0
 23 27  1  0  0  0  0
 27 28  1  0  0  0  0
 28 29  2  0  0  0  0
 28 30  1  0  0  0  0
 30 31  1  0  0  0  0
 30 32  1  0  0  0  0
 10 12  1  0  0  0  0
 17 19  1  0  0  0  0
 21 22  1  0  0  0  0
 25 27  1  0  0  0  0
M  END
>  <MolRegNo>
683713

>  <m>
=

>  <Value>
39

>  <Unit>
nM

>  <Type>
Ki

>  <pValue>
7.41

>  <Ligand Efficiency>
0.32

>  <Binding Efficiency>
16.49

>  <Surface Efficiency>
8.17

>  <Assay Index>
488516

>  <Assay Category>


>  <Assay Organism>
Homo sapiens

>  <Target ID>
56

>  <Target Name>
Androgen Receptor

>  <Target Organism>
Homo sapiens

>  <Target Description>
Target is a single protein chain

>  <Sequence Accession>
P10275

>  <Reference>
Bioorg Med Chem Lett 20 (15), 4491-4495 (2010)

>  <Pubmed ID>
20584610

>  <DOI>
10.1016/j.bmcl.2010.06.034

$$$$
683714
Actelion Java MolfileCreator 1.0

 32 36  0  0  1  0  0  0  0  0999 V2000
    0.0000   -0.0000   -0.0000 F   0  0  0  0  0  0  0  0  0  0  0  0
   -1.4825    0.0253   -0.0000 C   0  0  0  0  0  0  0  0  0  0  0  0
   -2.2174    1.3304   -0.0000 F   0  0  0  0  0  0  0  0  0  0  0  0
   -0.7729    1.3304   -0.0000 F   0  0  0  0  0  0  0  0  0  0  0  0
   -2.2554   -1.2291   -0.0000 C   0  0  0  0  0  0  0  0  0  0  0  0
   -1.5458   -2.5088   -0.0000 C   0  0  0  0  0  0  0  0  0  0  0  0
   -3.7379   -1.2037   -0.0000 C   0  0  0  0  0  0  0  0  0  0  0  0
   -0.0887   -2.5215   -0.0000 C   0  0  0  0  0  0  0  0  0  0  0  0
   -2.3187   -3.7632   -0.0000 C   0  0  0  0  0  0  0  0  0  0  0  0
   -4.4981   -2.4455   -0.0000 C   0  0  0  0  0  0  0  0  0  0  0  0
    1.3684   -2.5342   -0.0000 N   0  0  0  0  0  0  0  0  0  0  0  0
   -3.8012   -3.7252   -0.0000 C   0  0  0  0  0  0  0  0  0  0  0  0
   -5.9806   -2.4074   -0.0000 N   0  0  0  0  0  0  0  0  0  0  0  0
   -7.0956   -1.4191   -0.0000 C   0  0  0  0  0  0  0  0  0  0  0  0
   -6.5761   -3.7505   -0.0000 C   0  0  0  0  0  0  0  0  0  0  0  0
   -6.9689    0.0634   -0.0000 O   0  0  0  0  0  0  0  0  0  0  0  0
   -8.3754   -2.1540   -0.0000 C   0  0  0  0  0  0  0  0  0  0  0  0
   -5.8412   -5.0049   -0.0000 O   0  0  0  0  0  0  0  0  0  0  0  0
   -8.0586   -3.5985   -0.0000 C   0  0  0  0  0  0  0  0  0  0  0  0
   -9.7058   -1.4951   -0.0000 C   0  0  0  0  0  0  0  0  0  0  0  0
   -8.9962   -4.7262   -0.0000 C   0  0  0  0  0  0  0  0  0  0  0  0
  -10.2126   -3.0917   -0.0000 O   0  0  0  0  0  0  0  0  0  0  0  0
  -11.0489   -2.1033   -0.0000 C   0  0  0  0  0  0  0  0  0  0  0  0
   -9.6931   -0.0127   -0.0000 C   0  0  0  0  0  0  0  0  0  0  0  0
  -10.4914   -4.7009   -0.0000 C   0  0  0  0  0  0  0  0  0  0  0  0
   -8.3880   -6.0440   -0.0000 C   0  0  0  0  0  0  0  0  0  0  0  0
  -11.4037   -3.5225   -0.0000 N   0  0  0  0  0  0  0  0  0  0  0  0
  -12.8862   -3.4718   -0.0000 C   0  0  0  0  0  0  0  0  0  0  0  0
  -13.6084   -2.1414   -0.0000 O   0  0  0  0  0  0  0  0  0  0  0  0
  -13.6844   -4.7389   -0.0000 C   0  0  0  0  0  0  0  0  0  0  0  0
  -15.0148   -5.4358   -0.0000 C   0  0  0  0  0  0  0  0  0  0  0  0
  -13.7351   -6.2213   -0.0000 C   0  0  0  0  0  0  0  0  0  0  0  0
  1  2  1  0  0  0  0
  2  3  1  0  0  0  0
  2  4  1  0  0  0  0
  2  5  1  0  0  0  0
  5  6  2  0  0  0  0
  5  7  1  0  0  0  0
  6  8  1  0  0  0  0
  6  9  1  0  0  0  0
  7 10  2  0  0  0  0
  8 11  3  0  0  0  0
  9 12  2  0  0  0  0
 10 13  1  0  0  0  0
 13 14  1  0  0  0  0
 13 15  1  0  0  0  0
 14 16  2  0  0  0  0
 17 14  1  1  0  0  0
 15 18  2  0  0  0  0
 19 15  1  1  0  0  0
 17 20  1  0  0  0  0
 19 21  1  0  0  0  0
 20 22  1  0  0  0  0
 20 23  1  0  0  0  0
 20 24  1  1  0  0  0
 21 25  1  0  0  0  0
 21 26  1  1  0  0  0
 23 27  1  0  0  0  0
 27 28  1  0  0  0  0
 28 29  2  0  0  0  0
 28 30  1  0  0  0  0
 30 31  1  0  0  0  0
 30 32  1  0  0  0  0
 10 12  1  0  0  0  0
 17 19  1  0  0  0  0
 21 22  1  0  0  0  0
 25 27  1  0  0  0  0
 31 32  1  0  0  0  0
M  END
>  <MolRegNo>
683714

>  <m>
=

>  <Value>
36

>  <Unit>
nM

>  <Type>
Ki

>  <pValue>
7.44

>  <Ligand Efficiency>
0.32

>  <Binding Efficiency>
16.64

>  <Surface Efficiency>
8.21

>  <Assay Index>
488516

>  <Assay Category>


>  <Assay Organism>
Homo sapiens

>  <Target ID>
56

>  <Target Name>
Androgen Receptor

>  <Target Organism>
Homo sapiens

>  <Target Description>
Target is a single protein chain

>  <Sequence Accession>
P10275

>  <Reference>
Bioorg Med Chem Lett 20 (15), 4491-4495 (2010)

>  <Pubmed ID>
20584610

>  <DOI>
10.1016/j.bmcl.2010.06.034

$$$$
683778
Actelion Java MolfileCreator 1.0

 35 39  0  0  1  0  0  0  0  0999 V2000
    0.0000   -0.0000   -0.0000 F   0  0  0  0  0  0  0  0  0  0  0  0
   -1.4821    0.0253   -0.0000 C   0  0  0  0  0  0  0  0  0  0  0  0
   -2.2168    1.3301   -0.0000 F   0  0  0  0  0  0  0  0  0  0  0  0
   -0.7727    1.3301   -0.0000 F   0  0  0  0  0  0  0  0  0  0  0  0
   -2.2548   -1.2287   -0.0000 C   0  0  0  0  0  0  0  0  0  0  0  0
   -1.5454   -2.5081   -0.0000 C   0  0  0  0  0  0  0  0  0  0  0  0
   -3.7368   -1.2034   -0.0000 C   0  0  0  0  0  0  0  0  0  0  0  0
   -0.0887   -2.5208   -0.0000 C   0  0  0  0  0  0  0  0  0  0  0  0
   -2.3181   -3.7622   -0.0000 C   0  0  0  0  0  0  0  0  0  0  0  0
   -4.4969   -2.4448   -0.0000 C   0  0  0  0  0  0  0  0  0  0  0  0
    1.3681   -2.5335   -0.0000 N   0  0  0  0  0  0  0  0  0  0  0  0
   -3.8002   -3.7242   -0.0000 C   0  0  0  0  0  0  0  0  0  0  0  0
   -5.9790   -2.4068   -0.0000 N   0  0  0  0  0  0  0  0  0  0  0  0
   -7.0937   -1.4187   -0.0000 C   0  0  0  0  0  0  0  0  0  0  0  0
   -6.5743   -3.7495   -0.0000 C   0  0  0  0  0  0  0  0  0  0  0  0
   -6.9670    0.0633   -0.0000 O   0  0  0  0  0  0  0  0  0  0  0  0
   -8.3731   -2.1534   -0.0000 C   0  0  0  0  0  0  0  0  0  0  0  0
   -5.8396   -5.0036   -0.0000 O   0  0  0  0  0  0  0  0  0  0  0  0
   -8.0564   -3.5975   -0.0000 C   0  0  0  0  0  0  0  0  0  0  0  0
   -9.7031   -1.4947   -0.0000 C   0  0  0  0  0  0  0  0  0  0  0  0
   -8.9938   -4.7249   -0.0000 C   0  0  0  0  0  0  0  0  0  0  0  0
  -10.2098   -3.0908   -0.0000 O   0  0  0  0  0  0  0  0  0  0  0  0
  -11.0459   -2.1028   -0.0000 C   0  0  0  0  0  0  0  0  0  0  0  0
   -9.6905   -0.0000   -0.0000 C   0  0  0  0  0  0  0  0  0  0  0  0
  -10.4885   -4.6996   -0.0000 C   0  0  0  0  0  0  0  0  0  0  0  0
   -8.3731   -6.0550   -0.0000 C   0  0  0  0  0  0  0  0  0  0  0  0
  -11.4006   -3.5215   -0.0000 N   0  0  0  0  0  0  0  0  0  0  0  0
  -12.8953   -3.4708   -0.0000 C   0  0  0  0  0  0  0  0  0  0  0  0
  -13.6173   -2.1408   -0.0000 O   0  0  0  0  0  0  0  0  0  0  0  0
  -13.6933   -4.7376   -0.0000 C   0  0  0  0  0  0  0  0  0  0  0  0
  -15.2007   -4.6742   -0.0000 C   0  0  0  0  0  0  0  0  0  0  0  0
  -12.9966   -6.0296   -0.0000 C   0  0  0  0  0  0  0  0  0  0  0  0
  -15.9988   -5.9410   -0.0000 C   0  0  0  0  0  0  0  0  0  0  0  0
  -13.7947   -7.2964   -0.0000 C   0  0  0  0  0  0  0  0  0  0  0  0
  -15.3021   -7.2457   -0.0000 C   0  0  0  0  0  0  0  0  0  0  0  0
  1  2  1  0  0  0  0
  2  3  1  0  0  0  0
  2  4  1  0  0  0  0
  2  5  1  0  0  0  0
  5  6  2  0  0  0  0
  5  7  1  0  0  0  0
  6  8  1  0  0  0  0
  6  9  1  0  0  0  0
  7 10  2  0  0  0  0
  8 11  3  0  0  0  0
  9 12  2  0  0  0  0
 10 13  1  0  0  0  0
 13 14  1  0  0  0  0
 13 15  1  0  0  0  0
 14 16  2  0  0  0  0
 17 14  1  1  0  0  0
 15 18  2  0  0  0  0
 19 15  1  1  0  0  0
 17 20  1  0  0  0  0
 19 21  1  0  0  0  0
 20 22  1  0  0  0  0
 20 23  1  0  0  0  0
 20 24  1  1  0  0  0
 21 25  1  0  0  0  0
 21 26  1  1  0  0  0
 23 27  1  0  0  0  0
 27 28  1  0  0  0  0
 28 29  2  0  0  0  0
 28 30  1  0  0  0  0
 30 31  2  0  0  0  0
 30 32  1  0  0  0  0
 31 33  1  0  0  0  0
 32 34  2  0  0  0  0
 33 35  2  0  0  0  0
 10 12  1  0  0  0  0
 17 19  1  0  0  0  0
 21 22  1  0  0  0  0
 25 27  1  0  0  0  0
 34 35  1  0  0  0  0
M  END
>  <MolRegNo>
683778

>  <m>
=

>  <Value>
23

>  <Unit>
nM

>  <Type>
Ki

>  <pValue>
7.64

>  <Ligand Efficiency>
0.3

>  <Binding Efficiency>
15.8

>  <Surface Efficiency>
8.42

>  <Assay Index>
488516

>  <Assay Category>


>  <Assay Organism>
Homo sapiens

>  <Target ID>
56

>  <Target Name>
Androgen Receptor

>  <Target Organism>
Homo sapiens

>  <Target Description>
Target is a single protein chain

>  <Sequence Accession>
P10275

>  <Reference>
Bioorg Med Chem Lett 20 (15), 4491-4495 (2010)

>  <Pubmed ID>
20584610

>  <DOI>
10.1016/j.bmcl.2010.06.034

$$$$
683781
Actelion Java MolfileCreator 1.0

 32 35  0  0  1  0  0  0  0  0999 V2000
    0.0000   -0.0000   -0.0000 F   0  0  0  0  0  0  0  0  0  0  0  0
   -1.4815    0.0253   -0.0000 C   0  0  0  0  0  0  0  0  0  0  0  0
   -2.2159    1.3295   -0.0000 F   0  0  0  0  0  0  0  0  0  0  0  0
   -0.7724    1.3295   -0.0000 F   0  0  0  0  0  0  0  0  0  0  0  0
   -2.2539   -1.2282   -0.0000 C   0  0  0  0  0  0  0  0  0  0  0  0
   -1.5448   -2.5071   -0.0000 C   0  0  0  0  0  0  0  0  0  0  0  0
   -3.7353   -1.2029   -0.0000 C   0  0  0  0  0  0  0  0  0  0  0  0
   -0.0886   -2.5198   -0.0000 C   0  0  0  0  0  0  0  0  0  0  0  0
   -2.3172   -3.7607   -0.0000 C   0  0  0  0  0  0  0  0  0  0  0  0
   -4.4951   -2.4438   -0.0000 C   0  0  0  0  0  0  0  0  0  0  0  0
    1.3675   -2.5324   -0.0000 N   0  0  0  0  0  0  0  0  0  0  0  0
   -3.7987   -3.7227   -0.0000 C   0  0  0  0  0  0  0  0  0  0  0  0
   -5.9765   -2.4058   -0.0000 N   0  0  0  0  0  0  0  0  0  0  0  0
   -7.0908   -1.4182   -0.0000 C   0  0  0  0  0  0  0  0  0  0  0  0
   -6.5717   -3.7480   -0.0000 C   0  0  0  0  0  0  0  0  0  0  0  0
   -6.9642    0.0633   -0.0000 O   0  0  0  0  0  0  0  0  0  0  0  0
   -8.3697   -2.1526   -0.0000 C   0  0  0  0  0  0  0  0  0  0  0  0
   -5.8373   -5.0016   -0.0000 O   0  0  0  0  0  0  0  0  0  0  0  0
   -8.0531   -3.5961   -0.0000 C   0  0  0  0  0  0  0  0  0  0  0  0
   -9.6992   -1.4941   -0.0000 C   0  0  0  0  0  0  0  0  0  0  0  0
   -8.9901   -4.7230   -0.0000 C   0  0  0  0  0  0  0  0  0  0  0  0
  -10.2057   -3.0896   -0.0000 O   0  0  0  0  0  0  0  0  0  0  0  0
  -11.0414   -2.1019   -0.0000 C   0  0  0  0  0  0  0  0  0  0  0  0
   -9.6866   -0.0127   -0.0000 C   0  0  0  0  0  0  0  0  0  0  0  0
  -10.4843   -4.6977   -0.0000 C   0  0  0  0  0  0  0  0  0  0  0  0
   -8.3824   -6.0399   -0.0000 C   0  0  0  0  0  0  0  0  0  0  0  0
  -11.3960   -3.5201   -0.0000 N   0  0  0  0  0  0  0  0  0  0  0  0
  -12.8774   -3.4694   -0.0000 C   0  0  0  0  0  0  0  0  0  0  0  0
  -13.5992   -2.1399   -0.0000 O   0  0  0  0  0  0  0  0  0  0  0  0
  -13.6751   -4.7357   -0.0000 O   0  0  0  0  0  0  0  0  0  0  0  0
  -15.1819   -4.6850   -0.0000 C   0  0  0  0  0  0  0  0  0  0  0  0
  -15.9037   -3.3555   -0.0000 C   0  0  0  0  0  0  0  0  0  0  0  0
  1  2  1  0  0  0  0
  2  3  1  0  0  0  0
  2  4  1  0  0  0  0
  2  5  1  0  0  0  0
  5  6  2  0  0  0  0
  5  7  1  0  0  0  0
  6  8  1  0  0  0  0
  6  9  1  0  0  0  0
  7 10  2  0  0  0  0
  8 11  3  0  0  0  0
  9 12  2  0  0  0  0
 10 13  1  0  0  0  0
 13 14  1  0  0  0  0
 13 15  1  0  0  0  0
 14 16  2  0  0  0  0
 17 14  1  1  0  0  0
 15 18  2  0  0  0  0
 19 15  1  1  0  0  0
 17 20  1  0  0  0  0
 19 21  1  0  0  0  0
 20 22  1  0  0  0  0
 20 23  1  0  0  0  0
 20 24  1  1  0  0  0
 21 25  1  0  0  0  0
 21 26  1  1  0  0  0
 23 27  1  0  0  0  0
 27 28  1  0  0  0  0
 28 29  2  0  0  0  0
 28 30  1  0  0  0  0
 30 31  1  0  0  0  0
 31 32  1  0  0  0  0
 10 12  1  0  0  0  0
 17 19  1  0  0  0  0
 21 22  1  0  0  0  0
 25 27  1  0  0  0  0
M  END
>  <MolRegNo>
683781

>  <m>
=

>  <Value>
5.7

>  <Unit>
nM

>  <Type>
Ki

>  <pValue>
8.24

>  <Ligand Efficiency>
0.35

>  <Binding Efficiency>
18.26

>  <Surface Efficiency>
8.25

>  <Assay Index>
488516

>  <Assay Category>


>  <Assay Organism>
Homo sapiens

>  <Target ID>
56

>  <Target Name>
Androgen Receptor

>  <Target Organism>
Homo sapiens

>  <Target Description>
Target is a single protein chain

>  <Sequence Accession>
P10275

>  <Reference>
Bioorg Med Chem Lett 20 (15), 4491-4495 (2010)

>  <Pubmed ID>
20584610

>  <DOI>
10.1016/j.bmcl.2010.06.034

$$$$
683842
Actelion Java MolfileCreator 1.0

 33 36  0  0  1  0  0  0  0  0999 V2000
    0.0000   -0.0000   -0.0000 F   0  0  0  0  0  0  0  0  0  0  0  0
   -1.4813    0.0253   -0.0000 C   0  0  0  0  0  0  0  0  0  0  0  0
   -2.2156    1.3293   -0.0000 F   0  0  0  0  0  0  0  0  0  0  0  0
   -0.7723    1.3293   -0.0000 F   0  0  0  0  0  0  0  0  0  0  0  0
   -2.2535   -1.2281   -0.0000 C   0  0  0  0  0  0  0  0  0  0  0  0
   -1.5446   -2.5068   -0.0000 C   0  0  0  0  0  0  0  0  0  0  0  0
   -3.7348   -1.2027   -0.0000 C   0  0  0  0  0  0  0  0  0  0  0  0
   -0.0886   -2.5194   -0.0000 C   0  0  0  0  0  0  0  0  0  0  0  0
   -2.3168   -3.7601   -0.0000 C   0  0  0  0  0  0  0  0  0  0  0  0
   -4.4944   -2.4435   -0.0000 C   0  0  0  0  0  0  0  0  0  0  0  0
    1.3673   -2.5321   -0.0000 N   0  0  0  0  0  0  0  0  0  0  0  0
   -3.7981   -3.7221   -0.0000 C   0  0  0  0  0  0  0  0  0  0  0  0
   -5.9757   -2.4055   -0.0000 N   0  0  0  0  0  0  0  0  0  0  0  0
   -7.0898   -1.4180   -0.0000 C   0  0  0  0  0  0  0  0  0  0  0  0
   -6.5707   -3.7475   -0.0000 C   0  0  0  0  0  0  0  0  0  0  0  0
   -6.9632    0.0633   -0.0000 O   0  0  0  0  0  0  0  0  0  0  0  0
   -8.3685   -2.1523   -0.0000 C   0  0  0  0  0  0  0  0  0  0  0  0
   -5.8364   -5.0008   -0.0000 O   0  0  0  0  0  0  0  0  0  0  0  0
   -8.0520   -3.5955   -0.0000 C   0  0  0  0  0  0  0  0  0  0  0  0
   -9.6978   -1.4939   -0.0000 C   0  0  0  0  0  0  0  0  0  0  0  0
   -8.9889   -4.7223   -0.0000 C   0  0  0  0  0  0  0  0  0  0  0  0
  -10.2043   -3.0891   -0.0000 O   0  0  0  0  0  0  0  0  0  0  0  0
  -11.0398   -2.1016   -0.0000 C   0  0  0  0  0  0  0  0  0  0  0  0
   -9.6852   -0.0127   -0.0000 C   0  0  0  0  0  0  0  0  0  0  0  0
  -10.4828   -4.6970   -0.0000 C   0  0  0  0  0  0  0  0  0  0  0  0
   -8.3812   -6.0390   -0.0000 C   0  0  0  0  0  0  0  0  0  0  0  0
  -11.3943   -3.5196   -0.0000 N   0  0  0  0  0  0  0  0  0  0  0  0
  -12.8756   -3.4689   -0.0000 C   0  0  0  0  0  0  0  0  0  0  0  0
  -13.5972   -2.1396   -0.0000 O   0  0  0  0  0  0  0  0  0  0  0  0
  -13.6732   -4.7350   -0.0000 O   0  0  0  0  0  0  0  0  0  0  0  0
  -15.1798   -4.6843   -0.0000 C   0  0  0  0  0  0  0  0  0  0  0  0
  -15.9014   -3.3550   -0.0000 C   0  0  0  0  0  0  0  0  0  0  0  0
  -17.4080   -3.3044   -0.0000 C   0  0  0  0  0  0  0  0  0  0  0  0
  1  2  1  0  0  0  0
  2  3  1  0  0  0  0
  2  4  1  0  0  0  0
  2  5  1  0  0  0  0
  5  6  2  0  0  0  0
  5  7  1  0  0  0  0
  6  8  1  0  0  0  0
  6  9  1  0  0  0  0
  7 10  2  0  0  0  0
  8 11  3  0  0  0  0
  9 12  2  0  0  0  0
 10 13  1  0  0  0  0
 13 14  1  0  0  0  0
 13 15  1  0  0  0  0
 14 16  2  0  0  0  0
 17 14  1  1  0  0  0
 15 18  2  0  0  0  0
 19 15  1  1  0  0  0
 17 20  1  0  0  0  0
 19 21  1  0  0  0  0
 20 22  1  0  0  0  0
 20 23  1  0  0  0  0
 20 24  1  1  0  0  0
 21 25  1  0  0  0  0
 21 26  1  1  0  0  0
 23 27  1  0  0  0  0
 27 28  1  0  0  0  0
 28 29  2  0  0  0  0
 28 30  1  0  0  0  0
 30 31  1  0  0  0  0
 31 32  1  0  0  0  0
 32 33  1  0  0  0  0
 10 12  1  0  0  0  0
 17 19  1  0  0  0  0
 21 22  1  0  0  0  0
 25 27  1  0  0  0  0
M  END
>  <MolRegNo>
683842

>  <m>
=

>  <Value>
6.6

>  <Unit>
nM

>  <Type>
Ki

>  <pValue>
8.18

>  <Ligand Efficiency>
0.34

>  <Binding Efficiency>
17.58

>  <Surface Efficiency>
8.19

>  <Assay Index>
488516

>  <Assay Category>


>  <Assay Organism>
Homo sapiens

>  <Target ID>
56

>  <Target Name>
Androgen Receptor

>  <Target Organism>
Homo sapiens

>  <Target Description>
Target is a single protein chain

>  <Sequence Accession>
P10275

>  <Reference>
Bioorg Med Chem Lett 20 (15), 4491-4495 (2010)

>  <Pubmed ID>
20584610

>  <DOI>
10.1016/j.bmcl.2010.06.034

$$$$
684659
Actelion Java MolfileCreator 1.0

 33 36  0  0  1  0  0  0  0  0999 V2000
    0.0000   -0.0000   -0.0000 F   0  0  0  0  0  0  0  0  0  0  0  0
   -1.4816    0.0253   -0.0000 C   0  0  0  0  0  0  0  0  0  0  0  0
   -2.2160    1.3296   -0.0000 F   0  0  0  0  0  0  0  0  0  0  0  0
   -0.7724    1.3296   -0.0000 F   0  0  0  0  0  0  0  0  0  0  0  0
   -2.2540   -1.2283   -0.0000 C   0  0  0  0  0  0  0  0  0  0  0  0
   -1.5449   -2.5072   -0.0000 C   0  0  0  0  0  0  0  0  0  0  0  0
   -3.7355   -1.2030   -0.0000 C   0  0  0  0  0  0  0  0  0  0  0  0
   -0.0886   -2.5199   -0.0000 C   0  0  0  0  0  0  0  0  0  0  0  0
   -2.3173   -3.7609   -0.0000 C   0  0  0  0  0  0  0  0  0  0  0  0
   -4.4953   -2.4439   -0.0000 C   0  0  0  0  0  0  0  0  0  0  0  0
    1.3676   -2.5326   -0.0000 N   0  0  0  0  0  0  0  0  0  0  0  0
   -3.7989   -3.7229   -0.0000 C   0  0  0  0  0  0  0  0  0  0  0  0
   -5.9769   -2.4059   -0.0000 N   0  0  0  0  0  0  0  0  0  0  0  0
   -7.0912   -1.4182   -0.0000 C   0  0  0  0  0  0  0  0  0  0  0  0
   -6.5720   -3.7482   -0.0000 C   0  0  0  0  0  0  0  0  0  0  0  0
   -6.9646    0.0633   -0.0000 O   0  0  0  0  0  0  0  0  0  0  0  0
   -8.3702   -2.1527   -0.0000 C   0  0  0  0  0  0  0  0  0  0  0  0
   -5.8376   -5.0018   -0.0000 O   0  0  0  0  0  0  0  0  0  0  0  0
   -8.0536   -3.5963   -0.0000 C   0  0  0  0  0  0  0  0  0  0  0  0
   -9.6998   -1.4942   -0.0000 C   0  0  0  0  0  0  0  0  0  0  0  0
   -8.9906   -4.7232   -0.0000 C   0  0  0  0  0  0  0  0  0  0  0  0
  -10.2063   -3.0897   -0.0000 O   0  0  0  0  0  0  0  0  0  0  0  0
  -11.0420   -2.1020   -0.0000 C   0  0  0  0  0  0  0  0  0  0  0  0
   -9.6871   -0.0127   -0.0000 C   0  0  0  0  0  0  0  0  0  0  0  0
  -10.4849   -4.6979   -0.0000 C   0  0  0  0  0  0  0  0  0  0  0  0
   -8.3828   -6.0402   -0.0000 C   0  0  0  0  0  0  0  0  0  0  0  0
  -11.3966   -3.5203   -0.0000 N   0  0  0  0  0  0  0  0  0  0  0  0
  -12.8781   -3.4696   -0.0000 C   0  0  0  0  0  0  0  0  0  0  0  0
  -13.5999   -2.1400   -0.0000 O   0  0  0  0  0  0  0  0  0  0  0  0
  -13.6759   -4.7359   -0.0000 O   0  0  0  0  0  0  0  0  0  0  0  0
  -15.1828   -4.6726   -0.0000 C   0  0  0  0  0  0  0  0  0  0  0  0
  -15.9046   -3.3430   -0.0000 C   0  0  0  0  0  0  0  0  0  0  0  0
  -15.9805   -5.9389   -0.0000 C   0  0  0  0  0  0  0  0  0  0  0  0
  1  2  1  0  0  0  0
  2  3  1  0  0  0  0
  2  4  1  0  0  0  0
  2  5  1  0  0  0  0
  5  6  2  0  0  0  0
  5  7  1  0  0  0  0
  6  8  1  0  0  0  0
  6  9  1  0  0  0  0
  7 10  2  0  0  0  0
  8 11  3  0  0  0  0
  9 12  2  0  0  0  0
 10 13  1  0  0  0  0
 13 14  1  0  0  0  0
 13 15  1  0  0  0  0
 14 16  2  0  0  0  0
 17 14  1  1  0  0  0
 15 18  2  0  0  0  0
 19 15  1  1  0  0  0
 17 20  1  0  0  0  0
 19 21  1  0  0  0  0
 20 22  1  0  0  0  0
 20 23  1  0  0  0  0
 20 24  1  1  0  0  0
 21 25  1  0  0  0  0
 21 26  1  1  0  0  0
 23 27  1  0  0  0  0
 27 28  1  0  0  0  0
 28 29  2  0  0  0  0
 28 30  1  0  0  0  0
 30 31  1  0  0  0  0
 31 32  1  0  0  0  0
 31 33  1  0  0  0  0
 10 12  1  0  0  0  0
 17 19  1  0  0  0  0
 21 22  1  0  0  0  0
 25 27  1  0  0  0  0
M  END
>  <MolRegNo>
684659

>  <m>
=

>  <Value>
11

>  <Unit>
nM

>  <Type>
Ki

>  <pValue>
7.96

>  <Ligand Efficiency>
0.33

>  <Binding Efficiency>
17.1

>  <Surface Efficiency>
7.96

>  <Assay Index>
488516

>  <Assay Category>


>  <Assay Organism>
Homo sapiens

>  <Target ID>
56

>  <Target Name>
Androgen Receptor

>  <Target Organism>
Homo sapiens

>  <Target Description>
Target is a single protein chain

>  <Sequence Accession>
P10275

>  <Reference>
Bioorg Med Chem Lett 20 (15), 4491-4495 (2010)

>  <Pubmed ID>
20584610

>  <DOI>
10.1016/j.bmcl.2010.06.034

$$$$
684725
Actelion Java MolfileCreator 1.0

 32 35  0  0  1  0  0  0  0  0999 V2000
    0.0000   -0.0000   -0.0000 F   0  0  0  0  0  0  0  0  0  0  0  0
   -1.4819    0.0253   -0.0000 C   0  0  0  0  0  0  0  0  0  0  0  0
   -2.2166    1.3299   -0.0000 F   0  0  0  0  0  0  0  0  0  0  0  0
   -0.7726    1.3299   -0.0000 F   0  0  0  0  0  0  0  0  0  0  0  0
   -2.2546   -1.2286   -0.0000 C   0  0  0  0  0  0  0  0  0  0  0  0
   -1.5453   -2.5079   -0.0000 C   0  0  0  0  0  0  0  0  0  0  0  0
   -3.7365   -1.2033   -0.0000 C   0  0  0  0  0  0  0  0  0  0  0  0
   -0.0887   -2.5206   -0.0000 C   0  0  0  0  0  0  0  0  0  0  0  0
   -2.3179   -3.7618   -0.0000 C   0  0  0  0  0  0  0  0  0  0  0  0
   -4.4965   -2.4446   -0.0000 C   0  0  0  0  0  0  0  0  0  0  0  0
    1.3679   -2.5332   -0.0000 N   0  0  0  0  0  0  0  0  0  0  0  0
   -3.7998   -3.7238   -0.0000 C   0  0  0  0  0  0  0  0  0  0  0  0
   -5.9784   -2.4066   -0.0000 N   0  0  0  0  0  0  0  0  0  0  0  0
   -7.0930   -1.4186   -0.0000 C   0  0  0  0  0  0  0  0  0  0  0  0
   -6.5737   -3.7492   -0.0000 C   0  0  0  0  0  0  0  0  0  0  0  0
   -6.9663    0.0633   -0.0000 O   0  0  0  0  0  0  0  0  0  0  0  0
   -8.3723   -2.1532   -0.0000 C   0  0  0  0  0  0  0  0  0  0  0  0
   -5.8391   -5.0031   -0.0000 O   0  0  0  0  0  0  0  0  0  0  0  0
   -8.0556   -3.5972   -0.0000 C   0  0  0  0  0  0  0  0  0  0  0  0
   -9.7022   -1.4946   -0.0000 C   0  0  0  0  0  0  0  0  0  0  0  0
   -8.9929   -4.7245   -0.0000 C   0  0  0  0  0  0  0  0  0  0  0  0
  -10.2089   -3.0905   -0.0000 O   0  0  0  0  0  0  0  0  0  0  0  0
  -11.0448   -2.1026   -0.0000 C   0  0  0  0  0  0  0  0  0  0  0  0
   -9.6896   -0.0127   -0.0000 C   0  0  0  0  0  0  0  0  0  0  0  0
  -10.4875   -4.6991   -0.0000 C   0  0  0  0  0  0  0  0  0  0  0  0
   -8.3849   -6.0417   -0.0000 C   0  0  0  0  0  0  0  0  0  0  0  0
  -11.3995   -3.5212   -0.0000 N   0  0  0  0  0  0  0  0  0  0  0  0
  -12.8814   -3.4705   -0.0000 C   0  0  0  0  0  0  0  0  0  0  0  0
  -13.6034   -2.1406   -0.0000 O   0  0  0  0  0  0  0  0  0  0  0  0
  -13.6794   -4.7371   -0.0000 N   0  0  0  0  0  0  0  0  0  0  0  0
  -15.1866   -4.6865   -0.0000 C   0  0  0  0  0  0  0  0  0  0  0  0
  -15.9846   -5.9531   -0.0000 C   0  0  0  0  0  0  0  0  0  0  0  0
  1  2  1  0  0  0  0
  2  3  1  0  0  0  0
  2  4  1  0  0  0  0
  2  5  1  0  0  0  0
  5  6  2  0  0  0  0
  5  7  1  0  0  0  0
  6  8  1  0  0  0  0
  6  9  1  0  0  0  0
  7 10  2  0  0  0  0
  8 11  3  0  0  0  0
  9 12  2  0  0  0  0
 10 13  1  0  0  0  0
 13 14  1  0  0  0  0
 13 15  1  0  0  0  0
 14 16  2  0  0  0  0
 17 14  1  1  0  0  0
 15 18  2  0  0  0  0
 19 15  1  1  0  0  0
 17 20  1  0  0  0  0
 19 21  1  0  0  0  0
 20 22  1  0  0  0  0
 20 23  1  0  0  0  0
 20 24  1  1  0  0  0
 21 25  1  0  0  0  0
 21 26  1  1  0  0  0
 23 27  1  0  0  0  0
 27 28  1  0  0  0  0
 28 29  2  0  0  0  0
 28 30  1  0  0  0  0
 30 31  1  0  0  0  0
 31 32  1  0  0  0  0
 10 12  1  0  0  0  0
 17 19  1  0  0  0  0
 21 22  1  0  0  0  0
 25 27  1  0  0  0  0
M  END
>  <MolRegNo>
684725

>  <m>
=

>  <Value>
176

>  <Unit>
nM

>  <Type>
Ki

>  <pValue>
6.75

>  <Ligand Efficiency>
0.29

>  <Binding Efficiency>
15

>  <Surface Efficiency>
6.57

>  <Assay Index>
488516

>  <Assay Category>


>  <Assay Organism>
Homo sapiens

>  <Target ID>
56

>  <Target Name>
Androgen Receptor

>  <Target Organism>
Homo sapiens

>  <Target Description>
Target is a single protein chain

>  <Sequence Accession>
P10275

>  <Reference>
Bioorg Med Chem Lett 20 (15), 4491-4495 (2010)

>  <Pubmed ID>
20584610

>  <DOI>
10.1016/j.bmcl.2010.06.034

$$$$
683779
Actelion Java MolfileCreator 1.0

 33 36  0  0  1  0  0  0  0  0999 V2000
    0.0000   -0.0000   -0.0000 F   0  0  0  0  0  0  0  0  0  0  0  0
   -1.4816    0.0253   -0.0000 C   0  0  0  0  0  0  0  0  0  0  0  0
   -2.2160    1.3296   -0.0000 F   0  0  0  0  0  0  0  0  0  0  0  0
   -0.7724    1.3296   -0.0000 F   0  0  0  0  0  0  0  0  0  0  0  0
   -2.2540   -1.2283   -0.0000 C   0  0  0  0  0  0  0  0  0  0  0  0
   -1.5449   -2.5073   -0.0000 C   0  0  0  0  0  0  0  0  0  0  0  0
   -3.7356   -1.2030   -0.0000 C   0  0  0  0  0  0  0  0  0  0  0  0
   -0.0886   -2.5199   -0.0000 C   0  0  0  0  0  0  0  0  0  0  0  0
   -2.3173   -3.7609   -0.0000 C   0  0  0  0  0  0  0  0  0  0  0  0
   -4.4954   -2.4440   -0.0000 C   0  0  0  0  0  0  0  0  0  0  0  0
    1.3676   -2.5326   -0.0000 N   0  0  0  0  0  0  0  0  0  0  0  0
   -3.7989   -3.7229   -0.0000 C   0  0  0  0  0  0  0  0  0  0  0  0
   -5.9769   -2.4060   -0.0000 N   0  0  0  0  0  0  0  0  0  0  0  0
   -7.0913   -1.4183   -0.0000 C   0  0  0  0  0  0  0  0  0  0  0  0
   -6.5721   -3.7482   -0.0000 C   0  0  0  0  0  0  0  0  0  0  0  0
   -6.9646    0.0633   -0.0000 O   0  0  0  0  0  0  0  0  0  0  0  0
   -8.3702   -2.1527   -0.0000 C   0  0  0  0  0  0  0  0  0  0  0  0
   -5.8376   -5.0019   -0.0000 O   0  0  0  0  0  0  0  0  0  0  0  0
   -8.0537   -3.5963   -0.0000 C   0  0  0  0  0  0  0  0  0  0  0  0
   -9.6998   -1.4942   -0.0000 C   0  0  0  0  0  0  0  0  0  0  0  0
   -8.9907   -4.7233   -0.0000 C   0  0  0  0  0  0  0  0  0  0  0  0
  -10.2064   -3.0898   -0.0000 O   0  0  0  0  0  0  0  0  0  0  0  0
  -11.0421   -2.1021   -0.0000 C   0  0  0  0  0  0  0  0  0  0  0  0
   -9.6872   -0.0127   -0.0000 C   0  0  0  0  0  0  0  0  0  0  0  0
  -10.4849   -4.6980   -0.0000 C   0  0  0  0  0  0  0  0  0  0  0  0
   -8.3829   -6.0402   -0.0000 C   0  0  0  0  0  0  0  0  0  0  0  0
  -11.3967   -3.5203   -0.0000 N   0  0  0  0  0  0  0  0  0  0  0  0
  -12.8782   -3.4697   -0.0000 C   0  0  0  0  0  0  0  0  0  0  0  0
  -13.6000   -2.1400   -0.0000 O   0  0  0  0  0  0  0  0  0  0  0  0
  -13.6760   -4.7360   -0.0000 N   0  0  0  0  0  0  0  0  0  0  0  0
  -15.1829   -4.6853   -0.0000 C   0  0  0  0  0  0  0  0  0  0  0  0
  -15.9047   -3.3557   -0.0000 C   0  0  0  0  0  0  0  0  0  0  0  0
  -15.9807   -5.9516   -0.0000 C   0  0  0  0  0  0  0  0  0  0  0  0
  1  2  1  0  0  0  0
  2  3  1  0  0  0  0
  2  4  1  0  0  0  0
  2  5  1  0  0  0  0
  5  6  2  0  0  0  0
  5  7  1  0  0  0  0
  6  8  1  0  0  0  0
  6  9  1  0  0  0  0
  7 10  2  0  0  0  0
  8 11  3  0  0  0  0
  9 12  2  0  0  0  0
 10 13  1  0  0  0  0
 13 14  1  0  0  0  0
 13 15  1  0  0  0  0
 14 16  2  0  0  0  0
 17 14  1  1  0  0  0
 15 18  2  0  0  0  0
 19 15  1  1  0  0  0
 17 20  1  0  0  0  0
 19 21  1  0  0  0  0
 20 22  1  0  0  0  0
 20 23  1  0  0  0  0
 20 24  1  1  0  0  0
 21 25  1  0  0  0  0
 21 26  1  1  0  0  0
 23 27  1  0  0  0  0
 27 28  1  0  0  0  0
 28 29  2  0  0  0  0
 28 30  1  0  0  0  0
 30 31  1  0  0  0  0
 31 32  1  0  0  0  0
 31 33  1  0  0  0  0
 10 12  1  0  0  0  0
 17 19  1  0  0  0  0
 21 22  1  0  0  0  0
 25 27  1  0  0  0  0
M  END
>  <MolRegNo>
683779

>  <m>
=

>  <Value>
98

>  <Unit>
nM

>  <Type>
Ki

>  <pValue>
7.01

>  <Ligand Efficiency>
0.29

>  <Binding Efficiency>
15.09

>  <Surface Efficiency>
6.82

>  <Assay Index>
488516

>  <Assay Category>


>  <Assay Organism>
Homo sapiens

>  <Target ID>
56

>  <Target Name>
Androgen Receptor

>  <Target Organism>
Homo sapiens

>  <Target Description>
Target is a single protein chain

>  <Sequence Accession>
P10275

>  <Reference>
Bioorg Med Chem Lett 20 (15), 4491-4495 (2010)

>  <Pubmed ID>
20584610

>  <DOI>
10.1016/j.bmcl.2010.06.034

$$$$
683780
Actelion Java MolfileCreator 1.0

 36 40  0  0  1  0  0  0  0  0999 V2000
    0.0000   -0.0000   -0.0000 F   0  0  0  0  0  0  0  0  0  0  0  0
   -1.4801    0.0253   -0.0000 C   0  0  0  0  0  0  0  0  0  0  0  0
   -2.2138    1.3283   -0.0000 F   0  0  0  0  0  0  0  0  0  0  0  0
   -0.7717    1.3283   -0.0000 F   0  0  0  0  0  0  0  0  0  0  0  0
   -2.2518   -1.2271   -0.0000 C   0  0  0  0  0  0  0  0  0  0  0  0
   -1.5433   -2.5048   -0.0000 C   0  0  0  0  0  0  0  0  0  0  0  0
   -3.7318   -1.2018   -0.0000 C   0  0  0  0  0  0  0  0  0  0  0  0
   -0.0886   -2.5174   -0.0000 C   0  0  0  0  0  0  0  0  0  0  0  0
   -2.3150   -3.7571   -0.0000 C   0  0  0  0  0  0  0  0  0  0  0  0
   -4.4909   -2.4415   -0.0000 C   0  0  0  0  0  0  0  0  0  0  0  0
    1.3662   -2.5301   -0.0000 N   0  0  0  0  0  0  0  0  0  0  0  0
   -3.7951   -3.7192   -0.0000 C   0  0  0  0  0  0  0  0  0  0  0  0
   -5.9709   -2.4036   -0.0000 N   0  0  0  0  0  0  0  0  0  0  0  0
   -7.0842   -1.4168   -0.0000 C   0  0  0  0  0  0  0  0  0  0  0  0
   -6.5655   -3.7445   -0.0000 C   0  0  0  0  0  0  0  0  0  0  0  0
   -6.9577    0.0633   -0.0000 O   0  0  0  0  0  0  0  0  0  0  0  0
   -8.3618   -2.1506   -0.0000 C   0  0  0  0  0  0  0  0  0  0  0  0
   -5.8318   -4.9969   -0.0000 O   0  0  0  0  0  0  0  0  0  0  0  0
   -8.0456   -3.5927   -0.0000 C   0  0  0  0  0  0  0  0  0  0  0  0
   -9.6901   -1.4927   -0.0000 C   0  0  0  0  0  0  0  0  0  0  0  0
   -8.9817   -4.7186   -0.0000 C   0  0  0  0  0  0  0  0  0  0  0  0
  -10.1961   -3.0867   -0.0000 O   0  0  0  0  0  0  0  0  0  0  0  0
  -11.0311   -2.0999   -0.0000 C   0  0  0  0  0  0  0  0  0  0  0  0
   -9.6775   -0.0000   -0.0000 C   0  0  0  0  0  0  0  0  0  0  0  0
  -10.4744   -4.6933   -0.0000 C   0  0  0  0  0  0  0  0  0  0  0  0
   -8.3745   -6.0468   -0.0000 C   0  0  0  0  0  0  0  0  0  0  0  0
  -11.3853   -3.5168   -0.0000 N   0  0  0  0  0  0  0  0  0  0  0  0
  -12.8654   -3.4662   -0.0000 C   0  0  0  0  0  0  0  0  0  0  0  0
  -13.5864   -2.1379   -0.0000 O   0  0  0  0  0  0  0  0  0  0  0  0
  -13.6623   -4.7312   -0.0000 N   0  0  0  0  0  0  0  0  0  0  0  0
  -15.1677   -4.6806   -0.0000 C   0  0  0  0  0  0  0  0  0  0  0  0
  -15.8888   -3.3523   -0.0000 C   0  0  0  0  0  0  0  0  0  0  0  0
  -15.9520   -5.9456   -0.0000 C   0  0  0  0  0  0  0  0  0  0  0  0
  -17.3942   -3.2891   -0.0000 C   0  0  0  0  0  0  0  0  0  0  0  0
  -17.4574   -5.8950   -0.0000 C   0  0  0  0  0  0  0  0  0  0  0  0
  -18.1911   -4.5541   -0.0000 C   0  0  0  0  0  0  0  0  0  0  0  0
  1  2  1  0  0  0  0
  2  3  1  0  0  0  0
  2  4  1  0  0  0  0
  2  5  1  0  0  0  0
  5  6  2  0  0  0  0
  5  7  1  0  0  0  0
  6  8  1  0  0  0  0
  6  9  1  0  0  0  0
  7 10  2  0  0  0  0
  8 11  3  0  0  0  0
  9 12  2  0  0  0  0
 10 13  1  0  0  0  0
 13 14  1  0  0  0  0
 13 15  1  0  0  0  0
 14 16  2  0  0  0  0
 17 14  1  1  0  0  0
 15 18  2  0  0  0  0
 19 15  1  1  0  0  0
 17 20  1  0  0  0  0
 19 21  1  0  0  0  0
 20 22  1  0  0  0  0
 20 23  1  0  0  0  0
 20 24  1  1  0  0  0
 21 25  1  0  0  0  0
 21 26  1  1  0  0  0
 23 27  1  0  0  0  0
 27 28  1  0  0  0  0
 28 29  2  0  0  0  0
 28 30  1  0  0  0  0
 30 31  1  0  0  0  0
 31 32  2  0  0  0  0
 31 33  1  0  0  0  0
 32 34  1  0  0  0  0
 33 35  2  0  0  0  0
 34 36  2  0  0  0  0
 10 12  1  0  0  0  0
 17 19  1  0  0  0  0
 21 22  1  0  0  0  0
 25 27  1  0  0  0  0
 35 36  1  0  0  0  0
M  END
>  <MolRegNo>
683780

>  <m>
=

>  <Value>
40

>  <Unit>
nM

>  <Type>
Ki

>  <pValue>
7.4

>  <Ligand Efficiency>
0.28

>  <Binding Efficiency>
14.84

>  <Surface Efficiency>
7.2

>  <Assay Index>
488516

>  <Assay Category>


>  <Assay Organism>
Homo sapiens

>  <Target ID>
56

>  <Target Name>
Androgen Receptor

>  <Target Organism>
Homo sapiens

>  <Target Description>
Target is a single protein chain

>  <Sequence Accession>
P10275

>  <Reference>
Bioorg Med Chem Lett 20 (15), 4491-4495 (2010)

>  <Pubmed ID>
20584610

>  <DOI>
10.1016/j.bmcl.2010.06.034

$$$$
683843
Actelion Java MolfileCreator 1.0

 37 41  0  0  1  0  0  0  0  0999 V2000
    0.0000   -0.0000   -0.0000 F   0  0  0  0  0  0  0  0  0  0  0  0
    1.4906   -0.0257   -0.0000 C   0  0  0  0  0  0  0  0  0  0  0  0
    2.2744    1.2721   -0.0000 C   0  0  0  0  0  0  0  0  0  0  0  0
    2.1973   -1.3364   -0.0000 C   0  0  0  0  0  0  0  0  0  0  0  0
    3.7650    1.2336   -0.0000 C   0  0  0  0  0  0  0  0  0  0  0  0
    3.6879   -1.3621   -0.0000 C   0  0  0  0  0  0  0  0  0  0  0  0
    4.4589   -0.0771   -0.0000 C   0  0  0  0  0  0  0  0  0  0  0  0
    5.9494   -0.1028   -0.0000 N   0  0  0  0  0  0  0  0  0  0  0  0
    6.7333    1.1950   -0.0000 C   0  0  0  0  0  0  0  0  0  0  0  0
    6.0008    2.5314   -0.0000 O   0  0  0  0  0  0  0  0  0  0  0  0
    8.1981    1.1693   -0.0000 N   0  0  0  0  0  0  0  0  0  0  0  0
    9.0976    0.0128   -0.0000 C   0  0  0  0  0  0  0  0  0  0  0  0
    8.5322    2.6213   -0.0000 C   0  0  0  0  0  0  0  0  0  0  0  0
   10.5753    0.0128   -0.0000 C   0  0  0  0  0  0  0  0  0  0  0  0
    9.8557    3.2510   -0.0000 C   0  0  0  0  0  0  0  0  0  0  0  0
    9.3417    1.6576   -0.0000 O   0  0  0  0  0  0  0  0  0  0  0  0
   11.5005    1.1693   -0.0000 C   0  0  0  0  0  0  0  0  0  0  0  0
   11.1921   -1.3107   -0.0000 C   0  0  0  0  0  0  0  0  0  0  0  0
   11.1664    2.6085   -0.0000 C   0  0  0  0  0  0  0  0  0  0  0  0
    9.8686    4.7415   -0.0000 C   0  0  0  0  0  0  0  0  0  0  0  0
   12.9654    1.0537   -0.0000 C   0  0  0  0  0  0  0  0  0  0  0  0
   12.4257    3.3795   -0.0000 C   0  0  0  0  0  0  0  0  0  0  0  0
   13.7107   -0.2056   -0.0000 O   0  0  0  0  0  0  0  0  0  0  0  0
   13.5436    2.4286   -0.0000 N   0  0  0  0  0  0  0  0  0  0  0  0
   12.5413    4.8700   -0.0000 O   0  0  0  0  0  0  0  0  0  0  0  0
   15.0085    2.4157   -0.0000 C   0  0  0  0  0  0  0  0  0  0  0  0
   15.7538    3.6879   -0.0000 C   0  0  0  0  0  0  0  0  0  0  0  0
   15.7152    1.1308   -0.0000 C   0  0  0  0  0  0  0  0  0  0  0  0
   17.2186    3.6879   -0.0000 C   0  0  0  0  0  0  0  0  0  0  0  0
   17.1801    1.1179   -0.0000 C   0  0  0  0  0  0  0  0  0  0  0  0
   17.9382    2.4029   -0.0000 C   0  0  0  0  0  0  0  0  0  0  0  0
   17.9768    4.9728   -0.0000 C   0  0  0  0  0  0  0  0  0  0  0  0
   19.4031    2.3900   -0.0000 C   0  0  0  0  0  0  0  0  0  0  0  0
   19.4416    4.9728   -0.0000 F   0  0  0  0  0  0  0  0  0  0  0  0
   17.2443    6.2835   -0.0000 F   0  0  0  0  0  0  0  0  0  0  0  0
   18.6963    6.2835   -0.0000 F   0  0  0  0  0  0  0  0  0  0  0  0
   20.8679    2.3772   -0.0000 N   0  0  0  0  0  0  0  0  0  0  0  0
  1  2  1  0  0  0  0
  2  3  2  0  0  0  0
  2  4  1  0  0  0  0
  3  5  1  0  0  0  0
  4  6  2  0  0  0  0
  5  7  2  0  0  0  0
  7  8  1  0  0  0  0
  8  9  1  0  0  0  0
  9 10  2  0  0  0  0
  9 11  1  0  0  0  0
 11 12  1  0  0  0  0
 11 13  1  0  0  0  0
 12 14  1  0  0  0  0
 13 15  1  0  0  0  0
 14 16  1  0  0  0  0
 14 17  1  0  0  0  0
 14 18  1  1  0  0  0
 15 19  1  0  0  0  0
 15 20  1  1  0  0  0
 17 21  1  1  0  0  0
 19 22  1  1  0  0  0
 21 23  2  0  0  0  0
 21 24  1  0  0  0  0
 22 25  2  0  0  0  0
 24 26  1  0  0  0  0
 26 27  2  0  0  0  0
 26 28  1  0  0  0  0
 27 29  1  0  0  0  0
 28 30  2  0  0  0  0
 29 31  2  0  0  0  0
 29 32  1  0  0  0  0
 31 33  1  0  0  0  0
 32 34  1  0  0  0  0
 32 35  1  0  0  0  0
 32 36  1  0  0  0  0
 33 37  3  0  0  0  0
  6  7  1  0  0  0  0
 15 16  1  0  0  0  0
 17 19  1  0  0  0  0
 22 24  1  0  0  0  0
 30 31  1  0  0  0  0
M  END
>  <MolRegNo>
683843

>  <m>
=

>  <Value>
29

>  <Unit>
nM

>  <Type>
Ki

>  <pValue>
7.54

>  <Ligand Efficiency>
0.28

>  <Binding Efficiency>
14.6

>  <Surface Efficiency>
7.34

>  <Assay Index>
488516

>  <Assay Category>


>  <Assay Organism>
Homo sapiens

>  <Target ID>
56

>  <Target Name>
Androgen Receptor

>  <Target Organism>
Homo sapiens

>  <Target Description>
Target is a single protein chain

>  <Sequence Accession>
P10275

>  <Reference>
Bioorg Med Chem Lett 20 (15), 4491-4495 (2010)

>  <Pubmed ID>
20584610

>  <DOI>
10.1016/j.bmcl.2010.06.034

$$$$
683844
Actelion Java MolfileCreator 1.0

 31 34  0  0  1  0  0  0  0  0999 V2000
    0.0000   -0.0000   -0.0000 S   0  0  0  0  0  0  0  0  0  0  0  0
    0.3721    1.4755   -0.0000 O   0  0  0  0  0  0  0  0  0  0  0  0
   -1.4755    0.4106   -0.0000 O   0  0  0  0  0  0  0  0  0  0  0  0
    1.4627   -0.0257   -0.0000 N   0  0  0  0  0  0  0  0  0  0  0  0
   -0.8083   -1.2702   -0.0000 C   0  0  0  0  0  0  0  0  0  0  0  0
    2.3609   -1.1804   -0.0000 C   0  0  0  0  0  0  0  0  0  0  0  0
    1.7963    1.4242   -0.0000 C   0  0  0  0  0  0  0  0  0  0  0  0
    3.8364   -1.1804   -0.0000 C   0  0  0  0  0  0  0  0  0  0  0  0
    3.1179    2.0529   -0.0000 C   0  0  0  0  0  0  0  0  0  0  0  0
    2.6046    0.4619   -0.0000 O   0  0  0  0  0  0  0  0  0  0  0  0
    4.7602   -0.0257   -0.0000 C   0  0  0  0  0  0  0  0  0  0  0  0
    4.4523   -2.5020   -0.0000 C   0  0  0  0  0  0  0  0  0  0  0  0
    4.4266    1.4114   -0.0000 C   0  0  0  0  0  0  0  0  0  0  0  0
    3.1307    3.5413   -0.0000 C   0  0  0  0  0  0  0  0  0  0  0  0
    6.2229   -0.1411   -0.0000 C   0  0  0  0  0  0  0  0  0  0  0  0
    5.6840    2.1812   -0.0000 C   0  0  0  0  0  0  0  0  0  0  0  0
    6.9671   -1.3986   -0.0000 O   0  0  0  0  0  0  0  0  0  0  0  0
    6.8003    1.2318   -0.0000 N   0  0  0  0  0  0  0  0  0  0  0  0
    5.7995    3.6696   -0.0000 O   0  0  0  0  0  0  0  0  0  0  0  0
    8.2630    1.2189   -0.0000 C   0  0  0  0  0  0  0  0  0  0  0  0
    9.0072    2.4892   -0.0000 C   0  0  0  0  0  0  0  0  0  0  0  0
    8.9687   -0.0642   -0.0000 C   0  0  0  0  0  0  0  0  0  0  0  0
   10.4699    2.4892   -0.0000 C   0  0  0  0  0  0  0  0  0  0  0  0
   10.4314   -0.0770   -0.0000 C   0  0  0  0  0  0  0  0  0  0  0  0
   11.1884    1.2061   -0.0000 C   0  0  0  0  0  0  0  0  0  0  0  0
   11.2269    3.7722   -0.0000 C   0  0  0  0  0  0  0  0  0  0  0  0
   12.6511    1.1933   -0.0000 C   0  0  0  0  0  0  0  0  0  0  0  0
   12.6896    3.7722   -0.0000 F   0  0  0  0  0  0  0  0  0  0  0  0
   10.4956    5.0810   -0.0000 F   0  0  0  0  0  0  0  0  0  0  0  0
   11.9454    5.0810   -0.0000 F   0  0  0  0  0  0  0  0  0  0  0  0
   14.1138    1.1804   -0.0000 N   0  0  0  0  0  0  0  0  0  0  0  0
  1  2  2  0  0  0  0
  1  3  2  0  0  0  0
  1  4  1  0  0  0  0
  1  5  1  0  0  0  0
  4  6  1  0  0  0  0
  4  7  1  0  0  0  0
  6  8  1  0  0  0  0
  7  9  1  0  0  0  0
  8 10  1  0  0  0  0
  8 11  1  0  0  0  0
  8 12  1  1  0  0  0
  9 13  1  0  0  0  0
  9 14  1  1  0  0  0
 11 15  1  1  0  0  0
 13 16  1  1  0  0  0
 15 17  2  0  0  0  0
 15 18  1  0  0  0  0
 16 19  2  0  0  0  0
 18 20  1  0  0  0  0
 20 21  2  0  0  0  0
 20 22  1  0  0  0  0
 21 23  1  0  0  0  0
 22 24  2  0  0  0  0
 23 25  2  0  0  0  0
 23 26  1  0  0  0  0
 25 27  1  0  0  0  0
 26 28  1  0  0  0  0
 26 29  1  0  0  0  0
 26 30  1  0  0  0  0
 27 31  3  0  0  0  0
  9 10  1  0  0  0  0
 11 13  1  0  0  0  0
 16 18  1  0  0  0  0
 24 25  1  0  0  0  0
M  END
>  <MolRegNo>
683844

>  <m>
=

>  <Value>
56

>  <Unit>
nM

>  <Type>
Ki

>  <pValue>
7.25

>  <Ligand Efficiency>
0.32

>  <Binding Efficiency>
15.85

>  <Surface Efficiency>
6.73

>  <Assay Index>
488516

>  <Assay Category>


>  <Assay Organism>
Homo sapiens

>  <Target ID>
56

>  <Target Name>
Androgen Receptor

>  <Target Organism>
Homo sapiens

>  <Target Description>
Target is a single protein chain

>  <Sequence Accession>
P10275

>  <Reference>
Bioorg Med Chem Lett 20 (15), 4491-4495 (2010)

>  <Pubmed ID>
20584610

>  <DOI>
10.1016/j.bmcl.2010.06.034

$$$$
683845
Actelion Java MolfileCreator 1.0

 32 35  0  0  1  0  0  0  0  0999 V2000
    0.0000   -0.0000   -0.0000 S   0  0  0  0  0  0  0  0  0  0  0  0
    0.3720    1.4751   -0.0000 O   0  0  0  0  0  0  0  0  0  0  0  0
   -1.4751    0.4105   -0.0000 O   0  0  0  0  0  0  0  0  0  0  0  0
    1.4623   -0.0257   -0.0000 N   0  0  0  0  0  0  0  0  0  0  0  0
   -0.8081   -1.2699   -0.0000 C   0  0  0  0  0  0  0  0  0  0  0  0
    2.3602   -1.1801   -0.0000 C   0  0  0  0  0  0  0  0  0  0  0  0
    1.7958    1.4238   -0.0000 C   0  0  0  0  0  0  0  0  0  0  0  0
   -2.3217   -1.2186   -0.0000 C   0  0  0  0  0  0  0  0  0  0  0  0
    3.8353   -1.1801   -0.0000 C   0  0  0  0  0  0  0  0  0  0  0  0
    3.1170    2.0523   -0.0000 C   0  0  0  0  0  0  0  0  0  0  0  0
    2.6039    0.4618   -0.0000 O   0  0  0  0  0  0  0  0  0  0  0  0
    4.7589   -0.0257   -0.0000 C   0  0  0  0  0  0  0  0  0  0  0  0
    4.4510   -2.5013   -0.0000 C   0  0  0  0  0  0  0  0  0  0  0  0
    4.4254    1.4110   -0.0000 C   0  0  0  0  0  0  0  0  0  0  0  0
    3.1298    3.5403   -0.0000 C   0  0  0  0  0  0  0  0  0  0  0  0
    6.2211   -0.1411   -0.0000 C   0  0  0  0  0  0  0  0  0  0  0  0
    5.6824    2.1806   -0.0000 C   0  0  0  0  0  0  0  0  0  0  0  0
    6.9651   -1.3982   -0.0000 O   0  0  0  0  0  0  0  0  0  0  0  0
    6.7984    1.2314   -0.0000 N   0  0  0  0  0  0  0  0  0  0  0  0
    5.7979    3.6686   -0.0000 O   0  0  0  0  0  0  0  0  0  0  0  0
    8.2607    1.2186   -0.0000 C   0  0  0  0  0  0  0  0  0  0  0  0
    9.0046    2.4885   -0.0000 C   0  0  0  0  0  0  0  0  0  0  0  0
    8.9661   -0.0641   -0.0000 C   0  0  0  0  0  0  0  0  0  0  0  0
   10.4669    2.4885   -0.0000 C   0  0  0  0  0  0  0  0  0  0  0  0
   10.4284   -0.0770   -0.0000 C   0  0  0  0  0  0  0  0  0  0  0  0
   11.1852    1.2057   -0.0000 C   0  0  0  0  0  0  0  0  0  0  0  0
   11.2237    3.7712   -0.0000 C   0  0  0  0  0  0  0  0  0  0  0  0
   12.6475    1.1929   -0.0000 C   0  0  0  0  0  0  0  0  0  0  0  0
   12.6860    3.7712   -0.0000 F   0  0  0  0  0  0  0  0  0  0  0  0
   10.4926    5.0795   -0.0000 F   0  0  0  0  0  0  0  0  0  0  0  0
   11.9420    5.0795   -0.0000 F   0  0  0  0  0  0  0  0  0  0  0  0
   14.1098    1.1801   -0.0000 N   0  0  0  0  0  0  0  0  0  0  0  0
  1  2  2  0  0  0  0
  1  3  2  0  0  0  0
  1  4  1  0  0  0  0
  1  5  1  0  0  0  0
  4  6  1  0  0  0  0
  4  7  1  0  0  0  0
  5  8  1  0  0  0  0
  6  9  1  0  0  0  0
  7 10  1  0  0  0  0
  9 11  1  0  0  0  0
  9 12  1  0  0  0  0
  9 13  1  1  0  0  0
 10 14  1  0  0  0  0
 10 15  1  1  0  0  0
 12 16  1  1  0  0  0
 14 17  1  1  0  0  0
 16 18  2  0  0  0  0
 16 19  1  0  0  0  0
 17 20  2  0  0  0  0
 19 21  1  0  0  0  0
 21 22  2  0  0  0  0
 21 23  1  0  0  0  0
 22 24  1  0  0  0  0
 23 25  2  0  0  0  0
 24 26  2  0  0  0  0
 24 27  1  0  0  0  0
 26 28  1  0  0  0  0
 27 29  1  0  0  0  0
 27 30  1  0  0  0  0
 27 31  1  0  0  0  0
 28 32  3  0  0  0  0
 10 11  1  0  0  0  0
 12 14  1  0  0  0  0
 17 19  1  0  0  0  0
 25 26  1  0  0  0  0
M  END
>  <MolRegNo>
683845

>  <m>
=

>  <Value>
16

>  <Unit>
nM

>  <Type>
Ki

>  <pValue>
7.8

>  <Ligand Efficiency>
0.33

>  <Binding Efficiency>
16.54

>  <Surface Efficiency>
7.23

>  <Assay Index>
488516

>  <Assay Category>


>  <Assay Organism>
Homo sapiens

>  <Target ID>
56

>  <Target Name>
Androgen Receptor

>  <Target Organism>
Homo sapiens

>  <Target Description>
Target is a single protein chain

>  <Sequence Accession>
P10275

>  <Reference>
Bioorg Med Chem Lett 20 (15), 4491-4495 (2010)

>  <Pubmed ID>
20584610

>  <DOI>
10.1016/j.bmcl.2010.06.034

$$$$
683899
Actelion Java MolfileCreator 1.0

 36 40  0  0  1  0  0  0  0  0999 V2000
    0.0000   -0.0000   -0.0000 S   0  0  0  0  0  0  0  0  0  0  0  0
    0.3720    1.4753   -0.0000 O   0  0  0  0  0  0  0  0  0  0  0  0
   -1.4753    0.4105   -0.0000 O   0  0  0  0  0  0  0  0  0  0  0  0
    1.4625   -0.0257   -0.0000 N   0  0  0  0  0  0  0  0  0  0  0  0
   -0.8082   -1.2700   -0.0000 C   0  0  0  0  0  0  0  0  0  0  0  0
    2.3605   -1.1802   -0.0000 C   0  0  0  0  0  0  0  0  0  0  0  0
    1.7960    1.4240   -0.0000 C   0  0  0  0  0  0  0  0  0  0  0  0
   -2.3220   -1.2059   -0.0000 C   0  0  0  0  0  0  0  0  0  0  0  0
   -0.1026   -2.5657   -0.0000 C   0  0  0  0  0  0  0  0  0  0  0  0
    3.8358   -1.1802   -0.0000 C   0  0  0  0  0  0  0  0  0  0  0  0
    3.1174    2.0526   -0.0000 C   0  0  0  0  0  0  0  0  0  0  0  0
   -3.1302   -2.4759   -0.0000 C   0  0  0  0  0  0  0  0  0  0  0  0
   -0.8980   -3.8358   -0.0000 C   0  0  0  0  0  0  0  0  0  0  0  0
    2.6042    0.4618   -0.0000 O   0  0  0  0  0  0  0  0  0  0  0  0
    4.7594   -0.0257   -0.0000 C   0  0  0  0  0  0  0  0  0  0  0  0
    4.4515   -2.5016   -0.0000 C   0  0  0  0  0  0  0  0  0  0  0  0
    4.4259    1.4111   -0.0000 C   0  0  0  0  0  0  0  0  0  0  0  0
    3.1302    3.5407   -0.0000 C   0  0  0  0  0  0  0  0  0  0  0  0
   -2.4246   -3.7844   -0.0000 C   0  0  0  0  0  0  0  0  0  0  0  0
    6.2219   -0.1411   -0.0000 C   0  0  0  0  0  0  0  0  0  0  0  0
    5.6831    2.1809   -0.0000 C   0  0  0  0  0  0  0  0  0  0  0  0
    6.9659   -1.3983   -0.0000 O   0  0  0  0  0  0  0  0  0  0  0  0
    6.7992    1.2315   -0.0000 N   0  0  0  0  0  0  0  0  0  0  0  0
    5.7985    3.6690   -0.0000 O   0  0  0  0  0  0  0  0  0  0  0  0
    8.2616    1.2187   -0.0000 C   0  0  0  0  0  0  0  0  0  0  0  0
    9.0057    2.4888   -0.0000 C   0  0  0  0  0  0  0  0  0  0  0  0
    8.9672   -0.0641   -0.0000 C   0  0  0  0  0  0  0  0  0  0  0  0
   10.4681    2.4888   -0.0000 C   0  0  0  0  0  0  0  0  0  0  0  0
   10.4297   -0.0770   -0.0000 C   0  0  0  0  0  0  0  0  0  0  0  0
   11.1866    1.2059   -0.0000 C   0  0  0  0  0  0  0  0  0  0  0  0
   11.2250    3.7716   -0.0000 C   0  0  0  0  0  0  0  0  0  0  0  0
   12.6490    1.1931   -0.0000 C   0  0  0  0  0  0  0  0  0  0  0  0
   12.6875    3.7716   -0.0000 F   0  0  0  0  0  0  0  0  0  0  0  0
   10.4938    5.0801   -0.0000 F   0  0  0  0  0  0  0  0  0  0  0  0
   11.9434    5.0801   -0.0000 F   0  0  0  0  0  0  0  0  0  0  0  0
   14.1115    1.1802   -0.0000 N   0  0  0  0  0  0  0  0  0  0  0  0
  1  2  2  0  0  0  0
  1  3  2  0  0  0  0
  1  4  1  0  0  0  0
  1  5  1  0  0  0  0
  4  6  1  0  0  0  0
  4  7  1  0  0  0  0
  5  8  2  0  0  0  0
  5  9  1  0  0  0  0
  6 10  1  0  0  0  0
  7 11  1  0  0  0  0
  8 12  1  0  0  0  0
  9 13  2  0  0  0  0
 10 14  1  0  0  0  0
 10 15  1  0  0  0  0
 10 16  1  1  0  0  0
 11 17  1  0  0  0  0
 11 18  1  1  0  0  0
 12 19  2  0  0  0  0
 15 20  1  1  0  0  0
 17 21  1  1  0  0  0
 20 22  2  0  0  0  0
 20 23  1  0  0  0  0
 21 24  2  0  0  0  0
 23 25  1  0  0  0  0
 25 26  2  0  0  0  0
 25 27  1  0  0  0  0
 26 28  1  0  0  0  0
 27 29  2  0  0  0  0
 28 30  2  0  0  0  0
 28 31  1  0  0  0  0
 30 32  1  0  0  0  0
 31 33  1  0  0  0  0
 31 34  1  0  0  0  0
 31 35  1  0  0  0  0
 32 36  3  0  0  0  0
 11 14  1  0  0  0  0
 13 19  1  0  0  0  0
 15 17  1  0  0  0  0
 21 23  1  0  0  0  0
 29 30  1  0  0  0  0
M  END
>  <MolRegNo>
683899

>  <m>
=

>  <Value>
12

>  <Unit>
nM

>  <Type>
Ki

>  <pValue>
7.92

>  <Ligand Efficiency>
0.3

>  <Binding Efficiency>
15.25

>  <Surface Efficiency>
7.35

>  <Assay Index>
488516

>  <Assay Category>


>  <Assay Organism>
Homo sapiens

>  <Target ID>
56

>  <Target Name>
Androgen Receptor

>  <Target Organism>
Homo sapiens

>  <Target Description>
Target is a single protein chain

>  <Sequence Accession>
P10275

>  <Reference>
Bioorg Med Chem Lett 20 (15), 4491-4495 (2010)

>  <Pubmed ID>
20584610

>  <DOI>
10.1016/j.bmcl.2010.06.034

$$$$
683900
Actelion Java MolfileCreator 1.0

 37 41  0  0  1  0  0  0  0  0999 V2000
    0.0000   -0.0000   -0.0000 S   0  0  0  0  0  0  0  0  0  0  0  0
    0.3718    1.4744   -0.0000 O   0  0  0  0  0  0  0  0  0  0  0  0
   -1.4744    0.4103   -0.0000 O   0  0  0  0  0  0  0  0  0  0  0  0
    1.4616   -0.0256   -0.0000 N   0  0  0  0  0  0  0  0  0  0  0  0
   -0.8077   -1.2693   -0.0000 C   0  0  0  0  0  0  0  0  0  0  0  0
    2.3590   -1.1795   -0.0000 C   0  0  0  0  0  0  0  0  0  0  0  0
    1.7949    1.4231   -0.0000 C   0  0  0  0  0  0  0  0  0  0  0  0
   -2.3206   -1.2052   -0.0000 C   0  0  0  0  0  0  0  0  0  0  0  0
   -0.1026   -2.5642   -0.0000 C   0  0  0  0  0  0  0  0  0  0  0  0
    3.8334   -1.1795   -0.0000 C   0  0  0  0  0  0  0  0  0  0  0  0
    3.1155    2.0642   -0.0000 C   0  0  0  0  0  0  0  0  0  0  0  0
   -3.1283   -2.4744   -0.0000 C   0  0  0  0  0  0  0  0  0  0  0  0
   -0.8975   -3.8334   -0.0000 C   0  0  0  0  0  0  0  0  0  0  0  0
    2.6026    0.4616   -0.0000 O   0  0  0  0  0  0  0  0  0  0  0  0
    4.7565   -0.0256   -0.0000 C   0  0  0  0  0  0  0  0  0  0  0  0
    4.4488   -2.5001   -0.0000 C   0  0  0  0  0  0  0  0  0  0  0  0
    4.4232    1.4231   -0.0000 C   0  0  0  0  0  0  0  0  0  0  0  0
    3.1283    3.5514   -0.0000 C   0  0  0  0  0  0  0  0  0  0  0  0
   -2.4231   -3.7822   -0.0000 C   0  0  0  0  0  0  0  0  0  0  0  0
    6.2181   -0.1410   -0.0000 C   0  0  0  0  0  0  0  0  0  0  0  0
    5.6796    2.1924   -0.0000 C   0  0  0  0  0  0  0  0  0  0  0  0
   -3.2180   -5.0514   -0.0000 F   0  0  0  0  0  0  0  0  0  0  0  0
    6.9617   -1.3975   -0.0000 O   0  0  0  0  0  0  0  0  0  0  0  0
    6.7951    1.2308   -0.0000 N   0  0  0  0  0  0  0  0  0  0  0  0
    5.7950    3.6796   -0.0000 O   0  0  0  0  0  0  0  0  0  0  0  0
    8.2566    1.2180   -0.0000 C   0  0  0  0  0  0  0  0  0  0  0  0
    9.0003    2.4872   -0.0000 C   0  0  0  0  0  0  0  0  0  0  0  0
    8.9618   -0.0641   -0.0000 C   0  0  0  0  0  0  0  0  0  0  0  0
   10.4618    2.4872   -0.0000 C   0  0  0  0  0  0  0  0  0  0  0  0
   10.4234   -0.0769   -0.0000 C   0  0  0  0  0  0  0  0  0  0  0  0
   11.1798    1.2052   -0.0000 C   0  0  0  0  0  0  0  0  0  0  0  0
   11.2183    3.7693   -0.0000 C   0  0  0  0  0  0  0  0  0  0  0  0
   12.6414    1.1923   -0.0000 C   0  0  0  0  0  0  0  0  0  0  0  0
   12.6798    3.7693   -0.0000 F   0  0  0  0  0  0  0  0  0  0  0  0
   10.4875    5.0771   -0.0000 F   0  0  0  0  0  0  0  0  0  0  0  0
   11.9362    5.0771   -0.0000 F   0  0  0  0  0  0  0  0  0  0  0  0
   14.1030    1.1795   -0.0000 N   0  0  0  0  0  0  0  0  0  0  0  0
  1  2  2  0  0  0  0
  1  3  2  0  0  0  0
  1  4  1  0  0  0  0
  1  5  1  0  0  0  0
  4  6  1  0  0  0  0
  4  7  1  0  0  0  0
  5  8  2  0  0  0  0
  5  9  1  0  0  0  0
  6 10  1  0  0  0  0
  7 11  1  0  0  0  0
  8 12  1  0  0  0  0
  9 13  2  0  0  0  0
 10 14  1  0  0  0  0
 10 15  1  0  0  0  0
 10 16  1  1  0  0  0
 11 17  1  0  0  0  0
 11 18  1  1  0  0  0
 12 19  2  0  0  0  0
 15 20  1  1  0  0  0
 17 21  1  1  0  0  0
 19 22  1  0  0  0  0
 20 23  2  0  0  0  0
 20 24  1  0  0  0  0
 21 25  2  0  0  0  0
 24 26  1  0  0  0  0
 26 27  2  0  0  0  0
 26 28  1  0  0  0  0
 27 29  1  0  0  0  0
 28 30  2  0  0  0  0
 29 31  2  0  0  0  0
 29 32  1  0  0  0  0
 31 33  1  0  0  0  0
 32 34  1  0  0  0  0
 32 35  1  0  0  0  0
 32 36  1  0  0  0  0
 33 37  3  0  0  0  0
 11 14  1  0  0  0  0
 13 19  1  0  0  0  0
 15 17  1  0  0  0  0
 21 24  1  0  0  0  0
 30 31  1  0  0  0  0
M  END
>  <MolRegNo>
683900

>  <m>
=

>  <Value>
32

>  <Unit>
nM

>  <Type>
Ki

>  <pValue>
7.5

>  <Ligand Efficiency>
0.28

>  <Binding Efficiency>
13.94

>  <Surface Efficiency>
6.95

>  <Assay Index>
488516

>  <Assay Category>


>  <Assay Organism>
Homo sapiens

>  <Target ID>
56

>  <Target Name>
Androgen Receptor

>  <Target Organism>
Homo sapiens

>  <Target Description>
Target is a single protein chain

>  <Sequence Accession>
P10275

>  <Reference>
Bioorg Med Chem Lett 20 (15), 4491-4495 (2010)

>  <Pubmed ID>
20584610

>  <DOI>
10.1016/j.bmcl.2010.06.034

$$$$
683901
Actelion Java MolfileCreator 1.0

 36 40  0  0  1  0  0  0  0  0999 V2000
    0.0000   -0.0000   -0.0000 S   0  0  0  0  0  0  0  0  0  0  0  0
    0.3720    1.4753   -0.0000 O   0  0  0  0  0  0  0  0  0  0  0  0
   -1.4753    0.4105   -0.0000 O   0  0  0  0  0  0  0  0  0  0  0  0
    1.4625   -0.0257   -0.0000 N   0  0  0  0  0  0  0  0  0  0  0  0
   -0.8082   -1.2700   -0.0000 C   0  0  0  0  0  0  0  0  0  0  0  0
    2.3605   -1.1802   -0.0000 C   0  0  0  0  0  0  0  0  0  0  0  0
    1.7960    1.4240   -0.0000 C   0  0  0  0  0  0  0  0  0  0  0  0
   -0.1026   -2.5657   -0.0000 N   0  0  0  0  0  0  0  0  0  0  0  0
   -2.3220   -1.2059   -0.0000 C   0  0  0  0  0  0  0  0  0  0  0  0
    3.8358   -1.1802   -0.0000 C   0  0  0  0  0  0  0  0  0  0  0  0
    3.1174    2.0526   -0.0000 C   0  0  0  0  0  0  0  0  0  0  0  0
   -0.8980   -3.8358   -0.0000 C   0  0  0  0  0  0  0  0  0  0  0  0
   -3.1302   -2.4759   -0.0000 C   0  0  0  0  0  0  0  0  0  0  0  0
    2.6042    0.4618   -0.0000 O   0  0  0  0  0  0  0  0  0  0  0  0
    4.7594   -0.0257   -0.0000 C   0  0  0  0  0  0  0  0  0  0  0  0
    4.4515   -2.5016   -0.0000 C   0  0  0  0  0  0  0  0  0  0  0  0
    4.4259    1.4111   -0.0000 C   0  0  0  0  0  0  0  0  0  0  0  0
    3.1302    3.5407   -0.0000 C   0  0  0  0  0  0  0  0  0  0  0  0
   -2.4246   -3.7844   -0.0000 C   0  0  0  0  0  0  0  0  0  0  0  0
    6.2219   -0.1411   -0.0000 C   0  0  0  0  0  0  0  0  0  0  0  0
    5.6831    2.1809   -0.0000 C   0  0  0  0  0  0  0  0  0  0  0  0
    6.9659   -1.3983   -0.0000 O   0  0  0  0  0  0  0  0  0  0  0  0
    6.7992    1.2315   -0.0000 N   0  0  0  0  0  0  0  0  0  0  0  0
    5.7985    3.6690   -0.0000 O   0  0  0  0  0  0  0  0  0  0  0  0
    8.2616    1.2187   -0.0000 C   0  0  0  0  0  0  0  0  0  0  0  0
    9.0057    2.4888   -0.0000 C   0  0  0  0  0  0  0  0  0  0  0  0
    8.9672   -0.0641   -0.0000 C   0  0  0  0  0  0  0  0  0  0  0  0
   10.4681    2.4888   -0.0000 C   0  0  0  0  0  0  0  0  0  0  0  0
   10.4297   -0.0770   -0.0000 C   0  0  0  0  0  0  0  0  0  0  0  0
   11.1866    1.2059   -0.0000 C   0  0  0  0  0  0  0  0  0  0  0  0
   11.2250    3.7716   -0.0000 C   0  0  0  0  0  0  0  0  0  0  0  0
   12.6490    1.1931   -0.0000 C   0  0  0  0  0  0  0  0  0  0  0  0
   12.6875    3.7716   -0.0000 F   0  0  0  0  0  0  0  0  0  0  0  0
   10.4938    5.0801   -0.0000 F   0  0  0  0  0  0  0  0  0  0  0  0
   11.9434    5.0801   -0.0000 F   0  0  0  0  0  0  0  0  0  0  0  0
   14.1115    1.1802   -0.0000 N   0  0  0  0  0  0  0  0  0  0  0  0
  1  2  2  0  0  0  0
  1  3  2  0  0  0  0
  1  4  1  0  0  0  0
  1  5  1  0  0  0  0
  4  6  1  0  0  0  0
  4  7  1  0  0  0  0
  5  8  2  0  0  0  0
  5  9  1  0  0  0  0
  6 10  1  0  0  0  0
  7 11  1  0  0  0  0
  8 12  1  0  0  0  0
  9 13  2  0  0  0  0
 10 14  1  0  0  0  0
 10 15  1  0  0  0  0
 10 16  1  1  0  0  0
 11 17  1  0  0  0  0
 11 18  1  1  0  0  0
 12 19  2  0  0  0  0
 15 20  1  1  0  0  0
 17 21  1  1  0  0  0
 20 22  2  0  0  0  0
 20 23  1  0  0  0  0
 21 24  2  0  0  0  0
 23 25  1  0  0  0  0
 25 26  2  0  0  0  0
 25 27  1  0  0  0  0
 26 28  1  0  0  0  0
 27 29  2  0  0  0  0
 28 30  2  0  0  0  0
 28 31  1  0  0  0  0
 30 32  1  0  0  0  0
 31 33  1  0  0  0  0
 31 34  1  0  0  0  0
 31 35  1  0  0  0  0
 32 36  3  0  0  0  0
 11 14  1  0  0  0  0
 13 19  1  0  0  0  0
 15 17  1  0  0  0  0
 21 23  1  0  0  0  0
 29 30  1  0  0  0  0
M  END
>  <MolRegNo>
683901

>  <m>
=

>  <Value>
93

>  <Unit>
nM

>  <Type>
Ki

>  <pValue>
7.03

>  <Ligand Efficiency>
0.27

>  <Binding Efficiency>
13.51

>  <Surface Efficiency>
5.83

>  <Assay Index>
488516

>  <Assay Category>


>  <Assay Organism>
Homo sapiens

>  <Target ID>
56

>  <Target Name>
Androgen Receptor

>  <Target Organism>
Homo sapiens

>  <Target Description>
Target is a single protein chain

>  <Sequence Accession>
P10275

>  <Reference>
Bioorg Med Chem Lett 20 (15), 4491-4495 (2010)

>  <Pubmed ID>
20584610

>  <DOI>
10.1016/j.bmcl.2010.06.034

$$$$
684599
Actelion Java MolfileCreator 1.0

 36 40  0  0  1  0  0  0  0  0999 V2000
    0.0000   -0.0000   -0.0000 F   0  0  0  0  0  0  0  0  0  0  0  0
   -1.4791    0.0253   -0.0000 C   0  0  0  0  0  0  0  0  0  0  0  0
   -2.2124    1.3274   -0.0000 F   0  0  0  0  0  0  0  0  0  0  0  0
   -0.7712    1.3274   -0.0000 F   0  0  0  0  0  0  0  0  0  0  0  0
   -2.2503   -1.2263   -0.0000 C   0  0  0  0  0  0  0  0  0  0  0  0
   -1.5423   -2.5032   -0.0000 C   0  0  0  0  0  0  0  0  0  0  0  0
   -3.7294   -1.2010   -0.0000 C   0  0  0  0  0  0  0  0  0  0  0  0
   -0.0759   -2.5158   -0.0000 C   0  0  0  0  0  0  0  0  0  0  0  0
   -2.3135   -3.7547   -0.0000 C   0  0  0  0  0  0  0  0  0  0  0  0
   -4.4880   -2.4399   -0.0000 C   0  0  0  0  0  0  0  0  0  0  0  0
    1.3780   -2.5284   -0.0000 N   0  0  0  0  0  0  0  0  0  0  0  0
   -3.7927   -3.7168   -0.0000 C   0  0  0  0  0  0  0  0  0  0  0  0
   -5.9671   -2.4020   -0.0000 N   0  0  0  0  0  0  0  0  0  0  0  0
   -7.0796   -1.4159   -0.0000 C   0  0  0  0  0  0  0  0  0  0  0  0
   -6.5613   -3.7421   -0.0000 C   0  0  0  0  0  0  0  0  0  0  0  0
   -6.9532    0.0632   -0.0000 O   0  0  0  0  0  0  0  0  0  0  0  0
   -8.3565   -2.1492   -0.0000 C   0  0  0  0  0  0  0  0  0  0  0  0
   -5.8280   -4.9937   -0.0000 O   0  0  0  0  0  0  0  0  0  0  0  0
   -8.0404   -3.5904   -0.0000 C   0  0  0  0  0  0  0  0  0  0  0  0
   -9.6839   -1.4918   -0.0000 C   0  0  0  0  0  0  0  0  0  0  0  0
   -8.9760   -4.7155   -0.0000 C   0  0  0  0  0  0  0  0  0  0  0  0
  -10.1896   -3.0847   -0.0000 O   0  0  0  0  0  0  0  0  0  0  0  0
  -11.0240   -2.0986   -0.0000 C   0  0  0  0  0  0  0  0  0  0  0  0
   -9.6713   -0.0000   -0.0000 C   0  0  0  0  0  0  0  0  0  0  0  0
  -10.4677   -4.6903   -0.0000 C   0  0  0  0  0  0  0  0  0  0  0  0
   -8.3691   -6.0430   -0.0000 C   0  0  0  0  0  0  0  0  0  0  0  0
  -11.3780   -3.5145   -0.0000 N   0  0  0  0  0  0  0  0  0  0  0  0
  -12.8697   -3.4766   -0.0000 C   0  0  0  0  0  0  0  0  0  0  0  0
  -13.5904   -2.1492   -0.0000 C   0  0  0  0  0  0  0  0  0  0  0  0
  -13.6536   -4.7408   -0.0000 C   0  0  0  0  0  0  0  0  0  0  0  0
  -15.0948   -2.0986   -0.0000 C   0  0  0  0  0  0  0  0  0  0  0  0
  -15.1580   -4.7029   -0.0000 C   0  0  0  0  0  0  0  0  0  0  0  0
  -15.8280   -0.7712   -0.0000 C   0  0  0  0  0  0  0  0  0  0  0  0
  -15.8912   -3.3628   -0.0000 C   0  0  0  0  0  0  0  0  0  0  0  0
  -15.0568    0.5183   -0.0000 O   0  0  0  0  0  0  0  0  0  0  0  0
  -17.3324   -0.7206   -0.0000 N   0  0  0  0  0  0  0  0  0  0  0  0
  1  2  1  0  0  0  0
  2  3  1  0  0  0  0
  2  4  1  0  0  0  0
  2  5  1  0  0  0  0
  5  6  2  0  0  0  0
  5  7  1  0  0  0  0
  6  8  1  0  0  0  0
  6  9  1  0  0  0  0
  7 10  2  0  0  0  0
  8 11  3  0  0  0  0
  9 12  2  0  0  0  0
 10 13  1  0  0  0  0
 13 14  1  0  0  0  0
 13 15  1  0  0  0  0
 14 16  2  0  0  0  0
 17 14  1  1  0  0  0
 15 18  2  0  0  0  0
 19 15  1  1  0  0  0
 17 20  1  0  0  0  0
 19 21  1  0  0  0  0
 20 22  1  0  0  0  0
 20 23  1  0  0  0  0
 20 24  1  1  0  0  0
 21 25  1  0  0  0  0
 21 26  1  1  0  0  0
 23 27  1  0  0  0  0
 27 28  1  0  0  0  0
 28 29  2  0  0  0  0
 28 30  1  0  0  0  0
 29 31  1  0  0  0  0
 30 32  2  0  0  0  0
 31 33  1  0  0  0  0
 31 34  2  0  0  0  0
 33 35  2  0  0  0  0
 33 36  1  0  0  0  0
 10 12  1  0  0  0  0
 17 19  1  0  0  0  0
 21 22  1  0  0  0  0
 25 27  1  0  0  0  0
 32 34  1  0  0  0  0
M  END
>  <MolRegNo>
684599

>  <m>
=

>  <Value>
9

>  <Unit>
nM

>  <Type>
Ki

>  <pValue>
8.05

>  <Ligand Efficiency>
0.31

>  <Binding Efficiency>
16.14

>  <Surface Efficiency>
6.89

>  <Assay Index>
488516

>  <Assay Category>


>  <Assay Organism>
Homo sapiens

>  <Target ID>
56

>  <Target Name>
Androgen Receptor

>  <Target Organism>
Homo sapiens

>  <Target Description>
Target is a single protein chain

>  <Sequence Accession>
P10275

>  <Reference>
Bioorg Med Chem Lett 20 (15), 4491-4495 (2010)

>  <Pubmed ID>
20584610

>  <DOI>
10.1016/j.bmcl.2010.06.034

$$$$
683960
Actelion Java MolfileCreator 1.0

 37 41  0  0  1  0  0  0  0  0999 V2000
    0.0000   -0.0000   -0.0000 S   0  0  0  0  0  0  0  0  0  0  0  0
    1.4390    0.4111   -0.0000 O   0  0  0  0  0  0  0  0  0  0  0  0
   -0.4111    1.4775   -0.0000 O   0  0  0  0  0  0  0  0  0  0  0  0
   -1.5161    0.0514   -0.0000 N   0  0  0  0  0  0  0  0  0  0  0  0
    0.7066   -1.3105   -0.0000 C   0  0  0  0  0  0  0  0  0  0  0  0
    2.1970   -1.3362   -0.0000 C   0  0  0  0  0  0  0  0  0  0  0  0
   -0.0899   -2.5825   -0.0000 C   0  0  0  0  0  0  0  0  0  0  0  0
    2.9037   -2.6467   -0.0000 C   0  0  0  0  0  0  0  0  0  0  0  0
    0.6296   -3.8930   -0.0000 C   0  0  0  0  0  0  0  0  0  0  0  0
    4.3684   -2.6596   -0.0000 N   0  0  0  0  0  0  0  0  0  0  0  0
    2.1199   -3.9187   -0.0000 C   0  0  0  0  0  0  0  0  0  0  0  0
    5.2677   -3.8159   -0.0000 C   0  0  0  0  0  0  0  0  0  0  0  0
    4.7024   -1.2077   -0.0000 C   0  0  0  0  0  0  0  0  0  0  0  0
    6.7453   -3.8159   -0.0000 C   0  0  0  0  0  0  0  0  0  0  0  0
    6.0258   -0.5782   -0.0000 C   0  0  0  0  0  0  0  0  0  0  0  0
    5.5119   -2.1713   -0.0000 O   0  0  0  0  0  0  0  0  0  0  0  0
    7.6704   -2.6596   -0.0000 C   0  0  0  0  0  0  0  0  0  0  0  0
    7.3620   -5.1393   -0.0000 C   0  0  0  0  0  0  0  0  0  0  0  0
    7.3363   -1.2206   -0.0000 C   0  0  0  0  0  0  0  0  0  0  0  0
    6.0386    0.9122   -0.0000 C   0  0  0  0  0  0  0  0  0  0  0  0
    9.1350   -2.7752   -0.0000 C   0  0  0  0  0  0  0  0  0  0  0  0
    8.5954   -0.4497   -0.0000 C   0  0  0  0  0  0  0  0  0  0  0  0
    9.8802   -4.0343   -0.0000 O   0  0  0  0  0  0  0  0  0  0  0  0
    9.7132   -1.4004   -0.0000 N   0  0  0  0  0  0  0  0  0  0  0  0
    8.7111    1.0407   -0.0000 O   0  0  0  0  0  0  0  0  0  0  0  0
   11.1779   -1.4133   -0.0000 C   0  0  0  0  0  0  0  0  0  0  0  0
   11.9231   -0.1413   -0.0000 C   0  0  0  0  0  0  0  0  0  0  0  0
   11.8846   -2.6981   -0.0000 C   0  0  0  0  0  0  0  0  0  0  0  0
   13.3878   -0.1413   -0.0000 C   0  0  0  0  0  0  0  0  0  0  0  0
   13.3492   -2.7110   -0.0000 C   0  0  0  0  0  0  0  0  0  0  0  0
   14.1073   -1.4261   -0.0000 C   0  0  0  0  0  0  0  0  0  0  0  0
   14.1458    1.1435   -0.0000 C   0  0  0  0  0  0  0  0  0  0  0  0
   15.5720   -1.4390   -0.0000 C   0  0  0  0  0  0  0  0  0  0  0  0
   15.6105    1.1435   -0.0000 F   0  0  0  0  0  0  0  0  0  0  0  0
   13.4135    2.4540   -0.0000 F   0  0  0  0  0  0  0  0  0  0  0  0
   14.8653    2.4540   -0.0000 F   0  0  0  0  0  0  0  0  0  0  0  0
   17.0367   -1.4518   -0.0000 N   0  0  0  0  0  0  0  0  0  0  0  0
  1  2  2  0  0  0  0
  1  3  2  0  0  0  0
  1  4  1  0  0  0  0
  1  5  1  0  0  0  0
  5  6  2  0  0  0  0
  5  7  1  0  0  0  0
  6  8  1  0  0  0  0
  7  9  2  0  0  0  0
  8 10  1  0  0  0  0
  8 11  2  0  0  0  0
 10 12  1  0  0  0  0
 10 13  1  0  0  0  0
 12 14  1  0  0  0  0
 13 15  1  0  0  0  0
 14 16  1  0  0  0  0
 14 17  1  0  0  0  0
 14 18  1  1  0  0  0
 15 19  1  0  0  0  0
 15 20  1  1  0  0  0
 17 21  1  1  0  0  0
 19 22  1  1  0  0  0
 21 23  2  0  0  0  0
 21 24  1  0  0  0  0
 22 25  2  0  0  0  0
 24 26  1  0  0  0  0
 26 27  2  0  0  0  0
 26 28  1  0  0  0  0
 27 29  1  0  0  0  0
 28 30  2  0  0  0  0
 29 31  2  0  0  0  0
 29 32  1  0  0  0  0
 31 33  1  0  0  0  0
 32 34  1  0  0  0  0
 32 35  1  0  0  0  0
 32 36  1  0  0  0  0
 33 37  3  0  0  0  0
  9 11  1  0  0  0  0
 15 16  1  0  0  0  0
 17 19  1  0  0  0  0
 22 24  1  0  0  0  0
 30 31  1  0  0  0  0
M  END
>  <MolRegNo>
683960

>  <m>
=

>  <Value>
22

>  <Unit>
nM

>  <Type>
Ki

>  <pValue>
7.66

>  <Ligand Efficiency>
0.28

>  <Binding Efficiency>
14.33

>  <Surface Efficiency>
5.72

>  <Assay Index>
488516

>  <Assay Category>


>  <Assay Organism>
Homo sapiens

>  <Target ID>
56

>  <Target Name>
Androgen Receptor

>  <Target Organism>
Homo sapiens

>  <Target Description>
Target is a single protein chain

>  <Sequence Accession>
P10275

>  <Reference>
Bioorg Med Chem Lett 20 (15), 4491-4495 (2010)

>  <Pubmed ID>
20584610

>  <DOI>
10.1016/j.bmcl.2010.06.034

$$$$
683961
Actelion Java MolfileCreator 1.0

 37 41  0  0  1  0  0  0  0  0999 V2000
    0.0000   -0.0000   -0.0000 S   0  0  0  0  0  0  0  0  0  0  0  0
   -1.3235    0.7710   -0.0000 O   0  0  0  0  0  0  0  0  0  0  0  0
   -1.0794   -1.0408   -0.0000 O   0  0  0  0  0  0  0  0  0  0  0  0
    0.7067   -1.3107   -0.0000 C   0  0  0  0  0  0  0  0  0  0  0  0
    0.7710    1.2978   -0.0000 C   0  0  0  0  0  0  0  0  0  0  0  0
    2.1973   -1.3364   -0.0000 C   0  0  0  0  0  0  0  0  0  0  0  0
   -0.0899   -2.5828   -0.0000 C   0  0  0  0  0  0  0  0  0  0  0  0
    2.9040   -2.6470   -0.0000 C   0  0  0  0  0  0  0  0  0  0  0  0
    0.6296   -3.8934   -0.0000 C   0  0  0  0  0  0  0  0  0  0  0  0
    4.3689   -2.6599   -0.0000 N   0  0  0  0  0  0  0  0  0  0  0  0
    2.1202   -3.9191   -0.0000 C   0  0  0  0  0  0  0  0  0  0  0  0
    5.2684   -3.8163   -0.0000 C   0  0  0  0  0  0  0  0  0  0  0  0
    4.7030   -1.2079   -0.0000 C   0  0  0  0  0  0  0  0  0  0  0  0
    6.7461   -3.8163   -0.0000 C   0  0  0  0  0  0  0  0  0  0  0  0
    6.0265   -0.5782   -0.0000 C   0  0  0  0  0  0  0  0  0  0  0  0
    5.5125   -2.1716   -0.0000 O   0  0  0  0  0  0  0  0  0  0  0  0
    7.6712   -2.6599   -0.0000 C   0  0  0  0  0  0  0  0  0  0  0  0
    7.3628   -5.1399   -0.0000 C   0  0  0  0  0  0  0  0  0  0  0  0
    7.3371   -1.2207   -0.0000 C   0  0  0  0  0  0  0  0  0  0  0  0
    6.0393    0.9123   -0.0000 C   0  0  0  0  0  0  0  0  0  0  0  0
    9.1361   -2.7755   -0.0000 C   0  0  0  0  0  0  0  0  0  0  0  0
    8.5964   -0.4497   -0.0000 C   0  0  0  0  0  0  0  0  0  0  0  0
    9.8814   -4.0348   -0.0000 O   0  0  0  0  0  0  0  0  0  0  0  0
    9.7143   -1.4006   -0.0000 N   0  0  0  0  0  0  0  0  0  0  0  0
    8.7121    1.0408   -0.0000 O   0  0  0  0  0  0  0  0  0  0  0  0
   11.1792   -1.4135   -0.0000 C   0  0  0  0  0  0  0  0  0  0  0  0
   11.9245   -0.1413   -0.0000 C   0  0  0  0  0  0  0  0  0  0  0  0
   11.8859   -2.6984   -0.0000 C   0  0  0  0  0  0  0  0  0  0  0  0
   13.3893   -0.1413   -0.0000 C   0  0  0  0  0  0  0  0  0  0  0  0
   13.3508   -2.7113   -0.0000 C   0  0  0  0  0  0  0  0  0  0  0  0
   14.1089   -1.4263   -0.0000 C   0  0  0  0  0  0  0  0  0  0  0  0
   14.1474    1.1436   -0.0000 C   0  0  0  0  0  0  0  0  0  0  0  0
   15.5738   -1.4392   -0.0000 C   0  0  0  0  0  0  0  0  0  0  0  0
   15.6123    1.1436   -0.0000 F   0  0  0  0  0  0  0  0  0  0  0  0
   13.4150    2.4543   -0.0000 F   0  0  0  0  0  0  0  0  0  0  0  0
   14.8670    2.4543   -0.0000 F   0  0  0  0  0  0  0  0  0  0  0  0
   17.0386   -1.4520   -0.0000 N   0  0  0  0  0  0  0  0  0  0  0  0
  1  2  2  0  0  0  0
  1  3  2  0  0  0  0
  1  4  1  0  0  0  0
  1  5  1  0  0  0  0
  4  6  2  0  0  0  0
  4  7  1  0  0  0  0
  6  8  1  0  0  0  0
  7  9  2  0  0  0  0
  8 10  1  0  0  0  0
  8 11  2  0  0  0  0
 10 12  1  0  0  0  0
 10 13  1  0  0  0  0
 12 14  1  0  0  0  0
 13 15  1  0  0  0  0
 14 16  1  0  0  0  0
 14 17  1  0  0  0  0
 14 18  1  1  0  0  0
 15 19  1  0  0  0  0
 15 20  1  1  0  0  0
 17 21  1  1  0  0  0
 19 22  1  1  0  0  0
 21 23  2  0  0  0  0
 21 24  1  0  0  0  0
 22 25  2  0  0  0  0
 24 26  1  0  0  0  0
 26 27  2  0  0  0  0
 26 28  1  0  0  0  0
 27 29  1  0  0  0  0
 28 30  2  0  0  0  0
 29 31  2  0  0  0  0
 29 32  1  0  0  0  0
 31 33  1  0  0  0  0
 32 34  1  0  0  0  0
 32 35  1  0  0  0  0
 32 36  1  0  0  0  0
 33 37  3  0  0  0  0
  9 11  1  0  0  0  0
 15 16  1  0  0  0  0
 17 19  1  0  0  0  0
 22 24  1  0  0  0  0
 30 31  1  0  0  0  0
M  END
>  <MolRegNo>
683961

>  <m>
=

>  <Value>
9.4

>  <Unit>
nM

>  <Type>
Ki

>  <pValue>
8.03

>  <Ligand Efficiency>
0.3

>  <Binding Efficiency>
15.04

>  <Surface Efficiency>
7.45

>  <Assay Index>
488516

>  <Assay Category>


>  <Assay Organism>
Homo sapiens

>  <Target ID>
56

>  <Target Name>
Androgen Receptor

>  <Target Organism>
Homo sapiens

>  <Target Description>
Target is a single protein chain

>  <Sequence Accession>
P10275

>  <Reference>
Bioorg Med Chem Lett 20 (15), 4491-4495 (2010)

>  <Pubmed ID>
20584610

>  <DOI>
10.1016/j.bmcl.2010.06.034

$$$$
683962
Actelion Java MolfileCreator 1.0

 34 38  0  0  1  0  0  0  0  0999 V2000
    0.0000   -0.0000   -0.0000 Cl  0  0  0  0  0  0  0  0  0  0  0  0
    0.7069   -1.3110   -0.0000 C   0  0  0  0  0  0  0  0  0  0  0  0
   -0.0900   -2.5834   -0.0000 N   0  0  0  0  0  0  0  0  0  0  0  0
    2.1978   -1.3367   -0.0000 C   0  0  0  0  0  0  0  0  0  0  0  0
    0.6298   -3.8943   -0.0000 C   0  0  0  0  0  0  0  0  0  0  0  0
    2.9047   -2.6476   -0.0000 C   0  0  0  0  0  0  0  0  0  0  0  0
    2.1207   -3.9072   -0.0000 N   0  0  0  0  0  0  0  0  0  0  0  0
    4.3699   -2.6605   -0.0000 N   0  0  0  0  0  0  0  0  0  0  0  0
    5.2696   -3.8172   -0.0000 C   0  0  0  0  0  0  0  0  0  0  0  0
    4.7040   -1.2081   -0.0000 C   0  0  0  0  0  0  0  0  0  0  0  0
    6.7476   -3.8172   -0.0000 C   0  0  0  0  0  0  0  0  0  0  0  0
    6.0279   -0.5655   -0.0000 C   0  0  0  0  0  0  0  0  0  0  0  0
    5.5138   -2.1721   -0.0000 O   0  0  0  0  0  0  0  0  0  0  0  0
    7.6730   -2.6605   -0.0000 C   0  0  0  0  0  0  0  0  0  0  0  0
    7.3645   -5.1410   -0.0000 C   0  0  0  0  0  0  0  0  0  0  0  0
    7.3388   -1.2081   -0.0000 C   0  0  0  0  0  0  0  0  0  0  0  0
    6.0407    0.9254   -0.0000 C   0  0  0  0  0  0  0  0  0  0  0  0
    9.1382   -2.7762   -0.0000 C   0  0  0  0  0  0  0  0  0  0  0  0
    8.5984   -0.4370   -0.0000 C   0  0  0  0  0  0  0  0  0  0  0  0
    9.8836   -4.0357   -0.0000 O   0  0  0  0  0  0  0  0  0  0  0  0
    9.7166   -1.4009   -0.0000 N   0  0  0  0  0  0  0  0  0  0  0  0
    8.7141    1.0539   -0.0000 O   0  0  0  0  0  0  0  0  0  0  0  0
   11.1818   -1.4138   -0.0000 C   0  0  0  0  0  0  0  0  0  0  0  0
   11.9272   -0.1414   -0.0000 C   0  0  0  0  0  0  0  0  0  0  0  0
   11.8886   -2.6990   -0.0000 C   0  0  0  0  0  0  0  0  0  0  0  0
   13.3924   -0.1414   -0.0000 C   0  0  0  0  0  0  0  0  0  0  0  0
   13.3538   -2.7119   -0.0000 C   0  0  0  0  0  0  0  0  0  0  0  0
   14.1121   -1.4266   -0.0000 C   0  0  0  0  0  0  0  0  0  0  0  0
   14.1507    1.1439   -0.0000 C   0  0  0  0  0  0  0  0  0  0  0  0
   15.5773   -1.4395   -0.0000 C   0  0  0  0  0  0  0  0  0  0  0  0
   15.6159    1.1439   -0.0000 F   0  0  0  0  0  0  0  0  0  0  0  0
   13.4181    2.4548   -0.0000 F   0  0  0  0  0  0  0  0  0  0  0  0
   14.8704    2.4548   -0.0000 F   0  0  0  0  0  0  0  0  0  0  0  0
   17.0425   -1.4523   -0.0000 N   0  0  0  0  0  0  0  0  0  0  0  0
  1  2  1  0  0  0  0
  2  3  2  0  0  0  0
  2  4  1  0  0  0  0
  3  5  1  0  0  0  0
  4  6  2  0  0  0  0
  5  7  2  0  0  0  0
  6  8  1  0  0  0  0
  8  9  1  0  0  0  0
  8 10  1  0  0  0  0
  9 11  1  0  0  0  0
 10 12  1  0  0  0  0
 11 13  1  0  0  0  0
 11 14  1  0  0  0  0
 11 15  1  1  0  0  0
 12 16  1  0  0  0  0
 12 17  1  1  0  0  0
 14 18  1  1  0  0  0
 16 19  1  1  0  0  0
 18 20  2  0  0  0  0
 18 21  1  0  0  0  0
 19 22  2  0  0  0  0
 21 23  1  0  0  0  0
 23 24  2  0  0  0  0
 23 25  1  0  0  0  0
 24 26  1  0  0  0  0
 25 27  2  0  0  0  0
 26 28  2  0  0  0  0
 26 29  1  0  0  0  0
 28 30  1  0  0  0  0
 29 31  1  0  0  0  0
 29 32  1  0  0  0  0
 29 33  1  0  0  0  0
 30 34  3  0  0  0  0
  6  7  1  0  0  0  0
 12 13  1  0  0  0  0
 14 16  1  0  0  0  0
 19 21  1  0  0  0  0
 27 28  1  0  0  0  0
M  END
>  <MolRegNo>
683962

>  <m>
=

>  <Value>
3.5

>  <Unit>
nM

>  <Type>
Ki

>  <pValue>
8.46

>  <Ligand Efficiency>
0.34

>  <Binding Efficiency>
17.19

>  <Surface Efficiency>
8.51

>  <Assay Index>
488516

>  <Assay Category>


>  <Assay Organism>
Homo sapiens

>  <Target ID>
56

>  <Target Name>
Androgen Receptor

>  <Target Organism>
Homo sapiens

>  <Target Description>
Target is a single protein chain

>  <Sequence Accession>
P10275

>  <Reference>
Bioorg Med Chem Lett 20 (15), 4491-4495 (2010)

>  <Pubmed ID>
20584610

>  <DOI>
10.1016/j.bmcl.2010.06.034

$$$$
684025
Actelion Java MolfileCreator 1.0

 33 37  0  0  1  0  0  0  0  0999 V2000
    0.0000   -0.0000   -0.0000 F   0  0  0  0  0  0  0  0  0  0  0  0
   -1.4811    0.0253   -0.0000 C   0  0  0  0  0  0  0  0  0  0  0  0
   -2.2153    1.3292   -0.0000 F   0  0  0  0  0  0  0  0  0  0  0  0
   -0.7722    1.3292   -0.0000 F   0  0  0  0  0  0  0  0  0  0  0  0
   -2.2533   -1.2279   -0.0000 C   0  0  0  0  0  0  0  0  0  0  0  0
   -1.5444   -2.5065   -0.0000 C   0  0  0  0  0  0  0  0  0  0  0  0
   -3.7344   -1.2026   -0.0000 C   0  0  0  0  0  0  0  0  0  0  0  0
   -0.0886   -2.5191   -0.0000 C   0  0  0  0  0  0  0  0  0  0  0  0
   -2.3166   -3.7597   -0.0000 C   0  0  0  0  0  0  0  0  0  0  0  0
   -4.4939   -2.4432   -0.0000 C   0  0  0  0  0  0  0  0  0  0  0  0
    1.3672   -2.5318   -0.0000 N   0  0  0  0  0  0  0  0  0  0  0  0
   -3.7977   -3.7217   -0.0000 C   0  0  0  0  0  0  0  0  0  0  0  0
   -5.9750   -2.4052   -0.0000 N   0  0  0  0  0  0  0  0  0  0  0  0
   -7.0890   -1.4178   -0.0000 C   0  0  0  0  0  0  0  0  0  0  0  0
   -6.5700   -3.7471   -0.0000 C   0  0  0  0  0  0  0  0  0  0  0  0
   -6.9624    0.0633   -0.0000 O   0  0  0  0  0  0  0  0  0  0  0  0
   -8.3676   -2.1520   -0.0000 C   0  0  0  0  0  0  0  0  0  0  0  0
   -5.8358   -5.0003   -0.0000 O   0  0  0  0  0  0  0  0  0  0  0  0
   -8.0511   -3.5952   -0.0000 C   0  0  0  0  0  0  0  0  0  0  0  0
   -9.6968   -1.4938   -0.0000 C   0  0  0  0  0  0  0  0  0  0  0  0
   -8.9879   -4.7218   -0.0000 C   0  0  0  0  0  0  0  0  0  0  0  0
  -10.2031   -3.0888   -0.0000 O   0  0  0  0  0  0  0  0  0  0  0  0
  -11.0386   -2.1014   -0.0000 C   0  0  0  0  0  0  0  0  0  0  0  0
   -9.6841   -0.0127   -0.0000 C   0  0  0  0  0  0  0  0  0  0  0  0
  -10.4816   -4.6965   -0.0000 C   0  0  0  0  0  0  0  0  0  0  0  0
   -8.3803   -6.0383   -0.0000 C   0  0  0  0  0  0  0  0  0  0  0  0
  -11.3931   -3.5192   -0.0000 N   0  0  0  0  0  0  0  0  0  0  0  0
  -12.8742   -3.4812   -0.0000 C   0  0  0  0  0  0  0  0  0  0  0  0
  -13.5958   -2.1520   -0.0000 N   0  0  0  0  0  0  0  0  0  0  0  0
  -13.6591   -4.7471   -0.0000 N   0  0  0  0  0  0  0  0  0  0  0  0
  -15.1022   -2.1014   -0.0000 C   0  0  0  0  0  0  0  0  0  0  0  0
  -15.1655   -4.7091   -0.0000 C   0  0  0  0  0  0  0  0  0  0  0  0
  -15.8997   -3.3673   -0.0000 C   0  0  0  0  0  0  0  0  0  0  0  0
  1  2  1  0  0  0  0
  2  3  1  0  0  0  0
  2  4  1  0  0  0  0
  2  5  1  0  0  0  0
  5  6  2  0  0  0  0
  5  7  1  0  0  0  0
  6  8  1  0  0  0  0
  6  9  1  0  0  0  0
  7 10  2  0  0  0  0
  8 11  3  0  0  0  0
  9 12  2  0  0  0  0
 10 13  1  0  0  0  0
 13 14  1  0  0  0  0
 13 15  1  0  0  0  0
 14 16  2  0  0  0  0
 17 14  1  1  0  0  0
 15 18  2  0  0  0  0
 19 15  1  1  0  0  0
 17 20  1  0  0  0  0
 19 21  1  0  0  0  0
 20 22  1  0  0  0  0
 20 23  1  0  0  0  0
 20 24  1  1  0  0  0
 21 25  1  0  0  0  0
 21 26  1  1  0  0  0
 23 27  1  0  0  0  0
 27 28  1  0  0  0  0
 28 29  2  0  0  0  0
 28 30  1  0  0  0  0
 29 31  1  0  0  0  0
 30 32  2  0  0  0  0
 31 33  2  0  0  0  0
 10 12  1  0  0  0  0
 17 19  1  0  0  0  0
 21 22  1  0  0  0  0
 25 27  1  0  0  0  0
 32 33  1  0  0  0  0
M  END
>  <MolRegNo>
684025

>  <m>
=

>  <Value>
6.1

>  <Unit>
nM

>  <Type>
Ki

>  <pValue>
8.21

>  <Ligand Efficiency>
0.34

>  <Binding Efficiency>
17.96

>  <Surface Efficiency>
8.26

>  <Assay Index>
488516

>  <Assay Category>


>  <Assay Organism>
Homo sapiens

>  <Target ID>
56

>  <Target Name>
Androgen Receptor

>  <Target Organism>
Homo sapiens

>  <Target Description>
Target is a single protein chain

>  <Sequence Accession>
P10275

>  <Reference>
Bioorg Med Chem Lett 20 (15), 4491-4495 (2010)

>  <Pubmed ID>
20584610

>  <DOI>
10.1016/j.bmcl.2010.06.034

$$$$
709388
Actelion Java MolfileCreator 1.0

 33 34  0  0  0  0  0  0  0  0999 V2000
    0.0000   -0.0000   -0.0000 O   0  0  0  0  0  0  0  0  0  0  0  0
   -0.0237    1.5041   -0.0000 C   0  0  0  0  0  0  0  0  0  0  0  0
    1.2554    2.2739   -0.0000 C   0  0  0  0  0  0  0  0  0  0  0  0
   -1.3383    2.2620   -0.0000 C   0  0  0  0  0  0  0  0  0  0  0  0
    2.5463    1.5396   -0.0000 C   0  0  0  0  0  0  0  0  0  0  0  0
    1.2317    3.7779   -0.0000 C   0  0  0  0  0  0  0  0  0  0  0  0
    2.5226    3.0437   -0.0000 C   0  0  0  0  0  0  0  0  0  0  0  0
   -2.6410    1.5159   -0.0000 O   0  0  0  0  0  0  0  0  0  0  0  0
   -3.9556    2.2739   -0.0000 C   0  0  0  0  0  0  0  0  0  0  0  0
   -5.2583    1.5278   -0.0000 C   0  0  0  0  0  0  0  0  0  0  0  0
   -3.9793    3.7898   -0.0000 C   0  0  0  0  0  0  0  0  0  0  0  0
   -6.5611    2.2857   -0.0000 C   0  0  0  0  0  0  0  0  0  0  0  0
   -5.2702    0.0474   -0.0000 C   0  0  0  0  0  0  0  0  0  0  0  0
   -5.2820    4.5359   -0.0000 C   0  0  0  0  0  0  0  0  0  0  0  0
   -6.5729    3.7898   -0.0000 C   0  0  0  0  0  0  0  0  0  0  0  0
   -7.8875    4.5477   -0.0000 C   0  0  0  0  0  0  0  0  0  0  0  0
   -9.1902    3.8016   -0.0000 C   0  0  0  0  0  0  0  0  0  0  0  0
   -6.6084    5.3175   -0.0000 C   0  0  0  0  0  0  0  0  0  0  0  0
   -9.2021    5.2939   -0.0000 C   0  0  0  0  0  0  0  0  0  0  0  0
   -9.2021    2.3094   -0.0000 C   0  0  0  0  0  0  0  0  0  0  0  0
  -10.4930    4.5596   -0.0000 C   0  0  0  0  0  0  0  0  0  0  0  0
   -6.6321    6.8216   -0.0000 C   0  0  0  0  0  0  0  0  0  0  0  0
   -9.2139    6.7979   -0.0000 C   0  0  0  0  0  0  0  0  0  0  0  0
  -10.5167    1.5751   -0.0000 C   0  0  0  0  0  0  0  0  0  0  0  0
  -11.7957    3.8253   -0.0000 C   0  0  0  0  0  0  0  0  0  0  0  0
  -11.8194    2.3331   -0.0000 C   0  0  0  0  0  0  0  0  0  0  0  0
  -10.5285    0.0947   -0.0000 C   0  0  0  0  0  0  0  0  0  0  0  0
  -13.1221    1.5988   -0.0000 O   0  0  0  0  0  0  0  0  0  0  0  0
  -14.4249    2.3568   -0.0000 C   0  0  0  0  0  0  0  0  0  0  0  0
  -15.7276    1.6225   -0.0000 C   0  0  0  0  0  0  0  0  0  0  0  0
  -15.7395    0.1421   -0.0000 O   0  0  0  0  0  0  0  0  0  0  0  0
  -17.0304    2.3805   -0.0000 C   0  0  0  0  0  0  0  0  0  0  0  0
  -18.3331    1.6462   -0.0000 O   0  0  0  0  0  0  0  0  0  0  0  0
  1  2  2  0  0  0  0
  2  3  1  0  0  0  0
  2  4  1  0  0  0  0
  3  5  1  0  0  0  0
  3  6  1  0  0  0  0
  3  7  1  0  0  0  0
  4  8  1  0  0  0  0
  8  9  1  0  0  0  0
  9 10  2  0  0  0  0
  9 11  1  0  0  0  0
 10 12  1  0  0  0  0
 10 13  1  0  0  0  0
 11 14  2  0  0  0  0
 12 15  2  0  0  0  0
 15 16  1  0  0  0  0
 16 17  1  0  0  0  0
 16 18  1  0  0  0  0
 16 19  1  0  0  0  0
 17 20  2  0  0  0  0
 17 21  1  0  0  0  0
 18 22  1  0  0  0  0
 19 23  1  0  0  0  0
 20 24  1  0  0  0  0
 21 25  2  0  0  0  0
 24 26  2  0  0  0  0
 24 27  1  0  0  0  0
 26 28  1  0  0  0  0
 28 29  1  0  0  0  0
 29 30  1  0  0  0  0
 30 31  1  1  0  0  0
 30 32  1  0  0  0  0
 32 33  1  0  0  0  0
 14 15  1  0  0  0  0
 25 26  1  0  0  0  0
M  END
>  <MolRegNo>
709388

>  <m>
=

>  <Value>
1100

>  <Unit>
nM

>  <Type>
Ki

>  <pValue>
5.96

>  <Ligand Efficiency>
0.25

>  <Binding Efficiency>
13.05

>  <Surface Efficiency>
7.84

>  <Assay Index>
520446

>  <Assay Category>


>  <Assay Organism>


>  <Target ID>
56

>  <Target Name>
Androgen Receptor

>  <Target Organism>
Homo sapiens

>  <Target Description>
Target is a single protein chain

>  <Sequence Accession>
P10275

>  <Reference>
Bioorg Med Chem Lett 20 (22), 6661-6666 (2010)

>  <Pubmed ID>
20888766

>  <DOI>
10.1016/j.bmcl.2010.09.011

$$$$
438388
Actelion Java MolfileCreator 1.0

 33 34  0  0  1  0  0  0  0  0999 V2000
    0.0000   -0.0000   -0.0000 O   0  0  0  0  0  0  0  0  0  0  0  0
   -1.3173    0.7476   -0.0000 C   0  0  0  0  0  0  0  0  0  0  0  0
    1.2817    0.7714   -0.0000 C   0  0  0  0  0  0  0  0  0  0  0  0
   -2.6227   -0.0000   -0.0000 C   0  0  0  0  0  0  0  0  0  0  0  0
   -1.3410    2.2667   -0.0000 C   0  0  0  0  0  0  0  0  0  0  0  0
    2.5752    0.0475   -0.0000 C   0  0  0  0  0  0  0  0  0  0  0  0
   -3.9281    0.7476   -0.0000 C   0  0  0  0  0  0  0  0  0  0  0  0
   -2.6227   -1.4834   -0.0000 C   0  0  0  0  0  0  0  0  0  0  0  0
   -2.6464    3.0143   -0.0000 C   0  0  0  0  0  0  0  0  0  0  0  0
    2.5752   -1.4359   -0.0000 O   0  0  0  0  0  0  0  0  0  0  0  0
    3.8569    0.8188   -0.0000 C   0  0  0  0  0  0  0  0  0  0  0  0
   -3.9399    2.2548   -0.0000 C   0  0  0  0  0  0  0  0  0  0  0  0
    5.1267    1.5902   -0.0000 C   0  0  0  0  0  0  0  0  0  0  0  0
    4.6045   -0.4628   -0.0000 C   0  0  0  0  0  0  0  0  0  0  0  0
    3.0855    2.1242   -0.0000 C   0  0  0  0  0  0  0  0  0  0  0  0
   -5.2453    3.0143   -0.0000 C   0  0  0  0  0  0  0  0  0  0  0  0
   -6.5508    2.2667   -0.0000 C   0  0  0  0  0  0  0  0  0  0  0  0
   -6.5626    3.7738   -0.0000 C   0  0  0  0  0  0  0  0  0  0  0  0
   -3.9755    3.7857   -0.0000 C   0  0  0  0  0  0  0  0  0  0  0  0
   -6.5626    0.7714   -0.0000 C   0  0  0  0  0  0  0  0  0  0  0  0
   -7.8680    3.0143   -0.0000 C   0  0  0  0  0  0  0  0  0  0  0  0
   -6.5745    5.2809   -0.0000 C   0  0  0  0  0  0  0  0  0  0  0  0
   -3.9993    5.2928   -0.0000 C   0  0  0  0  0  0  0  0  0  0  0  0
   -7.8799    0.0356   -0.0000 C   0  0  0  0  0  0  0  0  0  0  0  0
   -9.1616    2.2785   -0.0000 C   0  0  0  0  0  0  0  0  0  0  0  0
   -9.1853    0.7951   -0.0000 C   0  0  0  0  0  0  0  0  0  0  0  0
   -7.8918   -1.4478   -0.0000 C   0  0  0  0  0  0  0  0  0  0  0  0
  -10.4907    0.0593   -0.0000 O   0  0  0  0  0  0  0  0  0  0  0  0
  -11.7961    0.8188   -0.0000 C   0  0  0  0  0  0  0  0  0  0  0  0
  -13.1015    0.0831   -0.0000 C   0  0  0  0  0  0  0  0  0  0  0  0
  -13.1134   -1.4003   -0.0000 O   0  0  0  0  0  0  0  0  0  0  0  0
  -14.4069    0.8426   -0.0000 C   0  0  0  0  0  0  0  0  0  0  0  0
  -15.7123    0.1068   -0.0000 O   0  0  0  0  0  0  0  0  0  0  0  0
  1  2  1  0  0  0  0
  1  3  1  0  0  0  0
  2  4  2  0  0  0  0
  2  5  1  0  0  0  0
  3  6  1  0  0  0  0
  4  7  1  0  0  0  0
  4  8  1  0  0  0  0
  5  9  2  0  0  0  0
  6 10  1  1  0  0  0
  6 11  1  0  0  0  0
  7 12  2  0  0  0  0
 11 13  1  0  0  0  0
 11 14  1  0  0  0  0
 11 15  1  0  0  0  0
 12 16  1  0  0  0  0
 16 17  1  0  0  0  0
 16 18  1  0  0  0  0
 16 19  1  0  0  0  0
 17 20  2  0  0  0  0
 17 21  1  0  0  0  0
 18 22  1  0  0  0  0
 19 23  1  0  0  0  0
 20 24  1  0  0  0  0
 21 25  2  0  0  0  0
 24 26  2  0  0  0  0
 24 27  1  0  0  0  0
 26 28  1  0  0  0  0
 28 29  1  0  0  0  0
 29 30  1  0  0  0  0
 30 31  1  6  0  0  0
 30 32  1  0  0  0  0
 32 33  1  0  0  0  0
  9 12  1  0  0  0  0
 25 26  1  0  0  0  0
M  END
>  <MolRegNo>
438388

>  <m>
=

>  <Value>
1000

>  <Unit>
nM

>  <Type>
Ki

>  <pValue>
6

>  <Ligand Efficiency>
0.25

>  <Binding Efficiency>
13.08

>  <Surface Efficiency>
7.58

>  <Assay Index>
520446

>  <Assay Category>


>  <Assay Organism>


>  <Target ID>
56

>  <Target Name>
Androgen Receptor

>  <Target Organism>
Homo sapiens

>  <Target Description>
Target is a single protein chain

>  <Sequence Accession>
P10275

>  <Reference>
Bioorg Med Chem Lett 20 (22), 6661-6666 (2010)

>  <Pubmed ID>
20888766

>  <DOI>
10.1016/j.bmcl.2010.09.011

$$$$
438350
Actelion Java MolfileCreator 1.0

 33 34  0  0  1  0  0  0  0  0999 V2000
    0.0000   -0.0000   -0.0000 O   0  0  0  0  0  0  0  0  0  0  0  0
   -1.3174    0.7477   -0.0000 C   0  0  0  0  0  0  0  0  0  0  0  0
    1.2818    0.7715   -0.0000 C   0  0  0  0  0  0  0  0  0  0  0  0
   -2.6230   -0.0000   -0.0000 C   0  0  0  0  0  0  0  0  0  0  0  0
   -1.3412    2.2669   -0.0000 C   0  0  0  0  0  0  0  0  0  0  0  0
    2.5755    0.0475   -0.0000 C   0  0  0  0  0  0  0  0  0  0  0  0
   -3.9285    0.7477   -0.0000 C   0  0  0  0  0  0  0  0  0  0  0  0
   -2.6230   -1.4836   -0.0000 C   0  0  0  0  0  0  0  0  0  0  0  0
   -2.6467    3.0146   -0.0000 C   0  0  0  0  0  0  0  0  0  0  0  0
    2.5755   -1.4361   -0.0000 O   0  0  0  0  0  0  0  0  0  0  0  0
    3.8573    0.8189   -0.0000 C   0  0  0  0  0  0  0  0  0  0  0  0
   -3.9404    2.2550   -0.0000 C   0  0  0  0  0  0  0  0  0  0  0  0
    5.1273    1.5904   -0.0000 C   0  0  0  0  0  0  0  0  0  0  0  0
    4.6050   -0.4629   -0.0000 C   0  0  0  0  0  0  0  0  0  0  0  0
    3.0859    2.1245   -0.0000 C   0  0  0  0  0  0  0  0  0  0  0  0
   -5.2460    3.0028   -0.0000 C   0  0  0  0  0  0  0  0  0  0  0  0
   -6.5515    2.2550   -0.0000 C   0  0  0  0  0  0  0  0  0  0  0  0
   -6.5634    3.7624   -0.0000 C   0  0  0  0  0  0  0  0  0  0  0  0
   -3.9760    3.7742   -0.0000 C   0  0  0  0  0  0  0  0  0  0  0  0
   -6.5634    0.7596   -0.0000 C   0  0  0  0  0  0  0  0  0  0  0  0
   -7.8689    3.0028   -0.0000 C   0  0  0  0  0  0  0  0  0  0  0  0
   -6.5753    5.2697   -0.0000 C   0  0  0  0  0  0  0  0  0  0  0  0
   -3.9997    5.2816   -0.0000 C   0  0  0  0  0  0  0  0  0  0  0  0
   -7.8808    0.0237   -0.0000 C   0  0  0  0  0  0  0  0  0  0  0  0
   -9.1626    2.2669   -0.0000 C   0  0  0  0  0  0  0  0  0  0  0  0
   -9.1864    0.7833   -0.0000 C   0  0  0  0  0  0  0  0  0  0  0  0
   -7.8927   -1.4598   -0.0000 C   0  0  0  0  0  0  0  0  0  0  0  0
  -10.4919    0.0475   -0.0000 O   0  0  0  0  0  0  0  0  0  0  0  0
  -11.7975    0.8071   -0.0000 C   0  0  0  0  0  0  0  0  0  0  0  0
  -13.1030    0.0712   -0.0000 C   0  0  0  0  0  0  0  0  0  0  0  0
  -13.1149   -1.4124   -0.0000 O   0  0  0  0  0  0  0  0  0  0  0  0
  -14.4086    0.8308   -0.0000 C   0  0  0  0  0  0  0  0  0  0  0  0
  -15.7141    0.0949   -0.0000 O   0  0  0  0  0  0  0  0  0  0  0  0
  1  2  1  0  0  0  0
  1  3  1  0  0  0  0
  2  4  2  0  0  0  0
  2  5  1  0  0  0  0
  3  6  1  0  0  0  0
  4  7  1  0  0  0  0
  4  8  1  0  0  0  0
  5  9  2  0  0  0  0
  6 10  1  6  0  0  0
  6 11  1  0  0  0  0
  7 12  2  0  0  0  0
 11 13  1  0  0  0  0
 11 14  1  0  0  0  0
 11 15  1  0  0  0  0
 12 16  1  0  0  0  0
 16 17  1  0  0  0  0
 16 18  1  0  0  0  0
 16 19  1  0  0  0  0
 17 20  2  0  0  0  0
 17 21  1  0  0  0  0
 18 22  1  0  0  0  0
 19 23  1  0  0  0  0
 20 24  1  0  0  0  0
 21 25  2  0  0  0  0
 24 26  2  0  0  0  0
 24 27  1  0  0  0  0
 26 28  1  0  0  0  0
 28 29  1  0  0  0  0
 29 30  1  0  0  0  0
 30 31  1  6  0  0  0
 30 32  1  0  0  0  0
 32 33  1  0  0  0  0
  9 12  1  0  0  0  0
 25 26  1  0  0  0  0
M  END
>  <MolRegNo>
438350

>  <m>
=

>  <Value>
1100

>  <Unit>
nM

>  <Type>
Ki

>  <pValue>
5.96

>  <Ligand Efficiency>
0.25

>  <Binding Efficiency>
12.99

>  <Surface Efficiency>
7.53

>  <Assay Index>
520446

>  <Assay Category>


>  <Assay Organism>


>  <Target ID>
56

>  <Target Name>
Androgen Receptor

>  <Target Organism>
Homo sapiens

>  <Target Description>
Target is a single protein chain

>  <Sequence Accession>
P10275

>  <Reference>
Bioorg Med Chem Lett 20 (22), 6661-6666 (2010)

>  <Pubmed ID>
20888766

>  <DOI>
10.1016/j.bmcl.2010.09.011

$$$$
438390
Actelion Java MolfileCreator 1.0

 33 34  0  0  0  0  0  0  0  0999 V2000
    0.0000   -0.0000   -0.0000 O   0  0  0  0  0  0  0  0  0  0  0  0
    1.2905    0.7577   -0.0000 C   0  0  0  0  0  0  0  0  0  0  0  0
   -0.0118   -1.4918   -0.0000 C   0  0  0  0  0  0  0  0  0  0  0  0
    1.2787    2.2732   -0.0000 C   0  0  0  0  0  0  0  0  0  0  0  0
    2.5810    0.0237   -0.0000 C   0  0  0  0  0  0  0  0  0  0  0  0
   -1.3260   -2.2258   -0.0000 C   0  0  0  0  0  0  0  0  0  0  0  0
    2.5691    3.0309   -0.0000 C   0  0  0  0  0  0  0  0  0  0  0  0
   -0.0355    3.0309   -0.0000 C   0  0  0  0  0  0  0  0  0  0  0  0
    3.8715    0.7814   -0.0000 C   0  0  0  0  0  0  0  0  0  0  0  0
   -2.6402   -1.4681   -0.0000 O   0  0  0  0  0  0  0  0  0  0  0  0
   -1.3379   -3.7176   -0.0000 C   0  0  0  0  0  0  0  0  0  0  0  0
    3.8596    2.2968   -0.0000 C   0  0  0  0  0  0  0  0  0  0  0  0
   -1.3497   -5.2093   -0.0000 C   0  0  0  0  0  0  0  0  0  0  0  0
    0.1539   -3.7057   -0.0000 C   0  0  0  0  0  0  0  0  0  0  0  0
   -2.8533   -3.7057   -0.0000 C   0  0  0  0  0  0  0  0  0  0  0  0
    5.1501    3.0546   -0.0000 C   0  0  0  0  0  0  0  0  0  0  0  0
    6.4406    3.8123   -0.0000 C   0  0  0  0  0  0  0  0  0  0  0  0
    4.3924    4.3687   -0.0000 C   0  0  0  0  0  0  0  0  0  0  0  0
    5.8842    1.7641   -0.0000 C   0  0  0  0  0  0  0  0  0  0  0  0
    7.7311    3.0664   -0.0000 C   0  0  0  0  0  0  0  0  0  0  0  0
    6.4288    5.3277   -0.0000 C   0  0  0  0  0  0  0  0  0  0  0  0
    2.8770    4.3806   -0.0000 C   0  0  0  0  0  0  0  0  0  0  0  0
    5.1265    0.4736   -0.0000 C   0  0  0  0  0  0  0  0  0  0  0  0
    9.0216    3.8241   -0.0000 C   0  0  0  0  0  0  0  0  0  0  0  0
    7.7193    6.0854   -0.0000 C   0  0  0  0  0  0  0  0  0  0  0  0
    9.0098    5.3396   -0.0000 C   0  0  0  0  0  0  0  0  0  0  0  0
   10.3121    3.0782   -0.0000 C   0  0  0  0  0  0  0  0  0  0  0  0
   10.3003    6.0973   -0.0000 O   0  0  0  0  0  0  0  0  0  0  0  0
   11.5908    5.3514   -0.0000 C   0  0  0  0  0  0  0  0  0  0  0  0
   12.8813    6.1091   -0.0000 C   0  0  0  0  0  0  0  0  0  0  0  0
   12.8694    7.6246   -0.0000 O   0  0  0  0  0  0  0  0  0  0  0  0
   14.1717    5.3632   -0.0000 C   0  0  0  0  0  0  0  0  0  0  0  0
   15.4622    6.1210   -0.0000 O   0  0  0  0  0  0  0  0  0  0  0  0
  1  2  1  0  0  0  0
  1  3  1  0  0  0  0
  2  4  2  0  0  0  0
  2  5  1  0  0  0  0
  3  6  1  0  0  0  0
  4  7  1  0  0  0  0
  4  8  1  0  0  0  0
  5  9  2  0  0  0  0
  6 10  1  1  0  0  0
  6 11  1  0  0  0  0
  7 12  2  0  0  0  0
 11 13  1  0  0  0  0
 11 14  1  0  0  0  0
 11 15  1  0  0  0  0
 12 16  1  0  0  0  0
 16 17  1  0  0  0  0
 16 18  1  0  0  0  0
 16 19  1  0  0  0  0
 17 20  2  0  0  0  0
 17 21  1  0  0  0  0
 18 22  1  0  0  0  0
 19 23  1  0  0  0  0
 20 24  1  0  0  0  0
 21 25  2  0  0  0  0
 24 26  2  0  0  0  0
 24 27  1  0  0  0  0
 26 28  1  0  0  0  0
 28 29  1  0  0  0  0
 29 30  1  0  0  0  0
 30 31  1  1  0  0  0
 30 32  1  0  0  0  0
 32 33  1  0  0  0  0
  9 12  1  0  0  0  0
 25 26  1  0  0  0  0
M  END
>  <MolRegNo>
438390

>  <m>
=

>  <Value>
1000

>  <Unit>
nM

>  <Type>
Ki

>  <pValue>
6

>  <Ligand Efficiency>
0.25

>  <Binding Efficiency>
13.08

>  <Surface Efficiency>
7.58

>  <Assay Index>
520446

>  <Assay Category>


>  <Assay Organism>


>  <Target ID>
56

>  <Target Name>
Androgen Receptor

>  <Target Organism>
Homo sapiens

>  <Target Description>
Target is a single protein chain

>  <Sequence Accession>
P10275

>  <Reference>
Bioorg Med Chem Lett 20 (22), 6661-6666 (2010)

>  <Pubmed ID>
20888766

>  <DOI>
10.1016/j.bmcl.2010.09.011

$$$$
438391
Actelion Java MolfileCreator 1.0

 33 34  0  0  1  0  0  0  0  0999 V2000
    0.0000   -0.0000   -0.0000 O   0  0  0  0  0  0  0  0  0  0  0  0
   -1.3170    0.7475   -0.0000 C   0  0  0  0  0  0  0  0  0  0  0  0
    1.2814    0.7712   -0.0000 C   0  0  0  0  0  0  0  0  0  0  0  0
   -2.6221   -0.0000   -0.0000 C   0  0  0  0  0  0  0  0  0  0  0  0
   -1.3407    2.2662   -0.0000 C   0  0  0  0  0  0  0  0  0  0  0  0
    2.5747    0.0475   -0.0000 C   0  0  0  0  0  0  0  0  0  0  0  0
   -3.9273    0.7475   -0.0000 C   0  0  0  0  0  0  0  0  0  0  0  0
   -2.6221   -1.4831   -0.0000 C   0  0  0  0  0  0  0  0  0  0  0  0
   -2.6459    3.0137   -0.0000 C   0  0  0  0  0  0  0  0  0  0  0  0
    2.5747   -1.4357   -0.0000 O   0  0  0  0  0  0  0  0  0  0  0  0
    3.8561    0.8187   -0.0000 C   0  0  0  0  0  0  0  0  0  0  0  0
   -3.9392    2.2543   -0.0000 C   0  0  0  0  0  0  0  0  0  0  0  0
    5.1256    1.5899   -0.0000 C   0  0  0  0  0  0  0  0  0  0  0  0
    4.6036   -0.4627   -0.0000 C   0  0  0  0  0  0  0  0  0  0  0  0
    3.0849    2.1238   -0.0000 C   0  0  0  0  0  0  0  0  0  0  0  0
   -5.2562    3.0137   -0.0000 C   0  0  0  0  0  0  0  0  0  0  0  0
   -6.5613    2.2662   -0.0000 C   0  0  0  0  0  0  0  0  0  0  0  0
   -6.5732    3.7730   -0.0000 C   0  0  0  0  0  0  0  0  0  0  0  0
   -3.9866    3.7849   -0.0000 C   0  0  0  0  0  0  0  0  0  0  0  0
   -6.5732    0.7712   -0.0000 C   0  0  0  0  0  0  0  0  0  0  0  0
   -7.8783    3.0137   -0.0000 C   0  0  0  0  0  0  0  0  0  0  0  0
   -6.5850    5.2799   -0.0000 C   0  0  0  0  0  0  0  0  0  0  0  0
   -4.0103    5.2918   -0.0000 C   0  0  0  0  0  0  0  0  0  0  0  0
   -7.8902    0.0356   -0.0000 C   0  0  0  0  0  0  0  0  0  0  0  0
   -9.1716    2.2781   -0.0000 C   0  0  0  0  0  0  0  0  0  0  0  0
   -9.1953    0.7949   -0.0000 C   0  0  0  0  0  0  0  0  0  0  0  0
   -7.9020   -1.4475   -0.0000 C   0  0  0  0  0  0  0  0  0  0  0  0
  -10.5004    0.0593   -0.0000 O   0  0  0  0  0  0  0  0  0  0  0  0
  -11.8056    0.8187   -0.0000 C   0  0  0  0  0  0  0  0  0  0  0  0
  -13.1107    0.0831   -0.0000 C   0  0  0  0  0  0  0  0  0  0  0  0
  -13.1226   -1.4001   -0.0000 O   0  0  0  0  0  0  0  0  0  0  0  0
  -14.4159    0.8424   -0.0000 C   0  0  0  0  0  0  0  0  0  0  0  0
  -15.7210    0.1068   -0.0000 O   0  0  0  0  0  0  0  0  0  0  0  0
  1  2  1  0  0  0  0
  1  3  1  0  0  0  0
  2  4  2  0  0  0  0
  2  5  1  0  0  0  0
  3  6  1  0  0  0  0
  4  7  1  0  0  0  0
  4  8  1  0  0  0  0
  5  9  2  0  0  0  0
  6 10  1  6  0  0  0
  6 11  1  0  0  0  0
  7 12  2  0  0  0  0
 11 13  1  0  0  0  0
 11 14  1  0  0  0  0
 11 15  1  0  0  0  0
 12 16  1  0  0  0  0
 16 17  1  0  0  0  0
 16 18  1  0  0  0  0
 16 19  1  0  0  0  0
 17 20  2  0  0  0  0
 17 21  1  0  0  0  0
 18 22  1  0  0  0  0
 19 23  1  0  0  0  0
 20 24  1  0  0  0  0
 21 25  2  0  0  0  0
 24 26  2  0  0  0  0
 24 27  1  0  0  0  0
 26 28  1  0  0  0  0
 28 29  1  0  0  0  0
 29 30  1  0  0  0  0
 30 31  1  1  0  0  0
 30 32  1  0  0  0  0
 32 33  1  0  0  0  0
  9 12  1  0  0  0  0
 25 26  1  0  0  0  0
M  END
>  <MolRegNo>
438391

>  <m>
=

>  <Value>
1100

>  <Unit>
nM

>  <Type>
Ki

>  <pValue>
5.96

>  <Ligand Efficiency>
0.25

>  <Binding Efficiency>
12.99

>  <Surface Efficiency>
7.53

>  <Assay Index>
520446

>  <Assay Category>


>  <Assay Organism>


>  <Target ID>
56

>  <Target Name>
Androgen Receptor

>  <Target Organism>
Homo sapiens

>  <Target Description>
Target is a single protein chain

>  <Sequence Accession>
P10275

>  <Reference>
Bioorg Med Chem Lett 20 (22), 6661-6666 (2010)

>  <Pubmed ID>
20888766

>  <DOI>
10.1016/j.bmcl.2010.09.011

$$$$
1059763
Actelion Java MolfileCreator 1.0

 25 28  0  0  0  0  0  0  0  0999 V2000
    0.0000   -0.0000   -0.0000 Cl  0  0  0  0  0  0  0  0  0  0  0  0
    0.0000   -1.4868   -0.0000 C   0  0  0  0  0  0  0  0  0  0  0  0
   -1.3084   -2.2243   -0.0000 C   0  0  0  0  0  0  0  0  0  0  0  0
    1.2846   -2.2124   -0.0000 C   0  0  0  0  0  0  0  0  0  0  0  0
   -2.6168   -1.4630   -0.0000 C   0  0  0  0  0  0  0  0  0  0  0  0
   -1.3203   -3.7111   -0.0000 C   0  0  0  0  0  0  0  0  0  0  0  0
    1.2727   -3.6992   -0.0000 C   0  0  0  0  0  0  0  0  0  0  0  0
    2.5692   -1.4392   -0.0000 C   0  0  0  0  0  0  0  0  0  0  0  0
   -3.9371   -2.2005   -0.0000 C   0  0  0  0  0  0  0  0  0  0  0  0
   -2.6287    0.0595   -0.0000 C   0  0  0  0  0  0  0  0  0  0  0  0
   -0.0357   -4.4486   -0.0000 C   0  0  0  0  0  0  0  0  0  0  0  0
    2.5573   -4.4367   -0.0000 N   0  0  0  0  0  0  0  0  0  0  0  0
    3.8657   -2.1767   -0.0000 C   0  0  0  0  0  0  0  0  0  0  0  0
    2.5573    0.0714   -0.0000 C   0  0  0  0  0  0  0  0  0  0  0  0
   -4.2702   -3.6635   -0.0000 N   0  0  0  0  0  0  0  0  0  0  0  0
   -5.2574   -1.4274   -0.0000 C   0  0  0  0  0  0  0  0  0  0  0  0
   -3.9371    0.8207   -0.0000 C   0  0  0  0  0  0  0  0  0  0  0  0
   -0.0476   -5.9354   -0.0000 C   0  0  0  0  0  0  0  0  0  0  0  0
    3.8420   -3.6754   -0.0000 C   0  0  0  0  0  0  0  0  0  0  0  0
    5.1504   -1.4155   -0.0000 O   0  0  0  0  0  0  0  0  0  0  0  0
   -5.7808   -3.8063   -0.0000 C   0  0  0  0  0  0  0  0  0  0  0  0
   -5.2693    0.0833   -0.0000 C   0  0  0  0  0  0  0  0  0  0  0  0
   -6.3874   -2.4265   -0.0000 C   0  0  0  0  0  0  0  0  0  0  0  0
    4.5675   -4.9600   -0.0000 C   0  0  0  0  0  0  0  0  0  0  0  0
    5.2693   -3.2710   -0.0000 C   0  0  0  0  0  0  0  0  0  0  0  0
  1  2  1  0  0  0  0
  2  3  2  0  0  0  0
  2  4  1  0  0  0  0
  3  5  1  0  0  0  0
  3  6  1  0  0  0  0
  4  7  2  0  0  0  0
  4  8  1  0  0  0  0
  5  9  2  0  0  0  0
  5 10  1  0  0  0  0
  6 11  2  0  0  0  0
  7 12  1  0  0  0  0
  8 13  1  0  0  0  0
  8 14  1  1  0  0  0
  9 15  1  0  0  0  0
  9 16  1  0  0  0  0
 10 17  2  0  0  0  0
 11 18  1  0  0  0  0
 12 19  1  0  0  0  0
 13 20  1  6  0  0  0
 15 21  1  0  0  0  0
 16 22  2  0  0  0  0
 16 23  1  0  0  0  0
 19 24  1  0  0  0  0
 19 25  1  0  0  0  0
  7 11  1  0  0  0  0
 13 19  1  0  0  0  0
 17 22  1  0  0  0  0
 21 23  2  0  0  0  0
M  END
>  <MolRegNo>
1059763

>  <m>
=

>  <Value>
900

>  <Unit>
nM

>  <Type>
Ki

>  <pValue>
6.05

>  <Ligand Efficiency>
0.33

>  <Binding Efficiency>
17.04

>  <Surface Efficiency>
12.58

>  <Assay Index>
545717

>  <Assay Category>


>  <Assay Organism>


>  <Target ID>
56

>  <Target Name>
Androgen Receptor

>  <Target Organism>
Homo sapiens

>  <Target Description>
Target is a single protein chain

>  <Sequence Accession>
P10275

>  <Reference>
Bioorg Med Chem Lett 21 (1), 168-171 (2011)

>  <Pubmed ID>
21115247

>  <DOI>
10.1016/j.bmcl.2010.11.047

$$$$
1059765
Actelion Java MolfileCreator 1.0

 26 29  0  0  0  0  0  0  0  0999 V2000
    0.0000   -0.0000   -0.0000 Cl  0  0  0  0  0  0  0  0  0  0  0  0
    0.0000   -1.4858   -0.0000 C   0  0  0  0  0  0  0  0  0  0  0  0
   -1.3075   -2.2228   -0.0000 C   0  0  0  0  0  0  0  0  0  0  0  0
    1.2838   -2.2109   -0.0000 C   0  0  0  0  0  0  0  0  0  0  0  0
   -2.6151   -1.4621   -0.0000 C   0  0  0  0  0  0  0  0  0  0  0  0
   -1.3194   -3.7086   -0.0000 C   0  0  0  0  0  0  0  0  0  0  0  0
    1.2719   -3.6968   -0.0000 C   0  0  0  0  0  0  0  0  0  0  0  0
    2.5675   -1.4383   -0.0000 C   0  0  0  0  0  0  0  0  0  0  0  0
   -3.9345   -2.1990   -0.0000 C   0  0  0  0  0  0  0  0  0  0  0  0
   -2.6270    0.0594   -0.0000 C   0  0  0  0  0  0  0  0  0  0  0  0
   -0.0357   -4.4456   -0.0000 C   0  0  0  0  0  0  0  0  0  0  0  0
    2.5556   -4.4337   -0.0000 N   0  0  0  0  0  0  0  0  0  0  0  0
    3.8632   -2.1753   -0.0000 C   0  0  0  0  0  0  0  0  0  0  0  0
    1.7949   -0.1189   -0.0000 C   0  0  0  0  0  0  0  0  0  0  0  0
    3.2926   -0.1189   -0.0000 C   0  0  0  0  0  0  0  0  0  0  0  0
   -4.2673   -3.6611   -0.0000 N   0  0  0  0  0  0  0  0  0  0  0  0
   -5.2539   -1.4264   -0.0000 C   0  0  0  0  0  0  0  0  0  0  0  0
   -3.9345    0.8202   -0.0000 C   0  0  0  0  0  0  0  0  0  0  0  0
   -0.0475   -5.9315   -0.0000 C   0  0  0  0  0  0  0  0  0  0  0  0
    3.8394   -3.6730   -0.0000 C   0  0  0  0  0  0  0  0  0  0  0  0
    5.1469   -1.4145   -0.0000 O   0  0  0  0  0  0  0  0  0  0  0  0
   -5.7769   -3.8037   -0.0000 C   0  0  0  0  0  0  0  0  0  0  0  0
   -5.2658    0.0832   -0.0000 C   0  0  0  0  0  0  0  0  0  0  0  0
   -6.3832   -2.4130   -0.0000 C   0  0  0  0  0  0  0  0  0  0  0  0
    4.5645   -4.9567   -0.0000 C   0  0  0  0  0  0  0  0  0  0  0  0
    5.2658   -3.2688   -0.0000 C   0  0  0  0  0  0  0  0  0  0  0  0
  1  2  1  0  0  0  0
  2  3  2  0  0  0  0
  2  4  1  0  0  0  0
  3  5  1  0  0  0  0
  3  6  1  0  0  0  0
  4  7  2  0  0  0  0
  4  8  1  0  0  0  0
  5  9  2  0  0  0  0
  5 10  1  0  0  0  0
  6 11  2  0  0  0  0
  7 12  1  0  0  0  0
  8 13  1  0  0  0  0
  8 14  1  0  0  0  0
  8 15  1  0  0  0  0
  9 16  1  0  0  0  0
  9 17  1  0  0  0  0
 10 18  2  0  0  0  0
 11 19  1  0  0  0  0
 12 20  1  0  0  0  0
 13 21  1  0  0  0  0
 16 22  1  0  0  0  0
 17 23  2  0  0  0  0
 17 24  1  0  0  0  0
 20 25  1  0  0  0  0
 20 26  1  0  0  0  0
  7 11  1  0  0  0  0
 13 20  1  0  0  0  0
 18 23  1  0  0  0  0
 22 24  2  0  0  0  0
M  END
>  <MolRegNo>
1059765

>  <m>
=

>  <Value>
915

>  <Unit>
nM

>  <Type>
Ki

>  <pValue>
6.04

>  <Ligand Efficiency>
0.32

>  <Binding Efficiency>
16.37

>  <Surface Efficiency>
12.57

>  <Assay Index>
545717

>  <Assay Category>


>  <Assay Organism>


>  <Target ID>
56

>  <Target Name>
Androgen Receptor

>  <Target Organism>
Homo sapiens

>  <Target Description>
Target is a single protein chain

>  <Sequence Accession>
P10275

>  <Reference>
Bioorg Med Chem Lett 21 (1), 168-171 (2011)

>  <Pubmed ID>
21115247

>  <DOI>
10.1016/j.bmcl.2010.11.047

$$$$
1059769
Actelion Java MolfileCreator 1.0

 25 28  0  0  0  0  0  0  0  0999 V2000
    0.0000   -0.0000   -0.0000 Cl  0  0  0  0  0  0  0  0  0  0  0  0
    0.0000   -1.4867   -0.0000 C   0  0  0  0  0  0  0  0  0  0  0  0
   -1.3083   -2.2241   -0.0000 C   0  0  0  0  0  0  0  0  0  0  0  0
    1.2845   -2.2122   -0.0000 C   0  0  0  0  0  0  0  0  0  0  0  0
   -2.6166   -1.4629   -0.0000 C   0  0  0  0  0  0  0  0  0  0  0  0
   -1.3202   -3.7108   -0.0000 C   0  0  0  0  0  0  0  0  0  0  0  0
    1.2726   -3.6990   -0.0000 C   0  0  0  0  0  0  0  0  0  0  0  0
    2.5690   -1.4391   -0.0000 C   0  0  0  0  0  0  0  0  0  0  0  0
   -3.9368   -2.2003   -0.0000 C   0  0  0  0  0  0  0  0  0  0  0  0
   -2.6285    0.0595   -0.0000 C   0  0  0  0  0  0  0  0  0  0  0  0
   -0.0357   -4.4483   -0.0000 C   0  0  0  0  0  0  0  0  0  0  0  0
    2.5572   -4.4364   -0.0000 N   0  0  0  0  0  0  0  0  0  0  0  0
    3.8655   -2.1766   -0.0000 C   0  0  0  0  0  0  0  0  0  0  0  0
    2.5572    0.0714   -0.0000 C   0  0  0  0  0  0  0  0  0  0  0  0
   -4.2699   -3.6633   -0.0000 N   0  0  0  0  0  0  0  0  0  0  0  0
   -5.2570   -1.4272   -0.0000 C   0  0  0  0  0  0  0  0  0  0  0  0
   -3.9368    0.8207   -0.0000 C   0  0  0  0  0  0  0  0  0  0  0  0
   -0.0476   -5.9350   -0.0000 C   0  0  0  0  0  0  0  0  0  0  0  0
    3.8417   -3.6752   -0.0000 C   0  0  0  0  0  0  0  0  0  0  0  0
    5.1500   -1.4154   -0.0000 O   0  0  0  0  0  0  0  0  0  0  0  0
   -5.7804   -3.8060   -0.0000 C   0  0  0  0  0  0  0  0  0  0  0  0
   -5.2689    0.0833   -0.0000 C   0  0  0  0  0  0  0  0  0  0  0  0
   -6.3869   -2.4144   -0.0000 C   0  0  0  0  0  0  0  0  0  0  0  0
    4.5672   -4.9597   -0.0000 C   0  0  0  0  0  0  0  0  0  0  0  0
    5.2689   -3.2708   -0.0000 C   0  0  0  0  0  0  0  0  0  0  0  0
  1  2  1  0  0  0  0
  2  3  2  0  0  0  0
  2  4  1  0  0  0  0
  3  5  1  0  0  0  0
  3  6  1  0  0  0  0
  4  7  2  0  0  0  0
  4  8  1  0  0  0  0
  5  9  2  0  0  0  0
  5 10  1  0  0  0  0
  6 11  2  0  0  0  0
  7 12  1  0  0  0  0
  8 13  1  0  0  0  0
  8 14  1  6  0  0  0
  9 15  1  0  0  0  0
  9 16  1  0  0  0  0
 10 17  2  0  0  0  0
 11 18  1  0  0  0  0
 12 19  1  0  0  0  0
 13 20  1  6  0  0  0
 15 21  1  0  0  0  0
 16 22  2  0  0  0  0
 16 23  1  0  0  0  0
 19 24  1  0  0  0  0
 19 25  1  0  0  0  0
  7 11  1  0  0  0  0
 13 19  1  0  0  0  0
 17 22  1  0  0  0  0
 21 23  2  0  0  0  0
M  END
>  <MolRegNo>
1059769

>  <m>
=

>  <Value>
400

>  <Unit>
nM

>  <Type>
Ki

>  <pValue>
6.4

>  <Ligand Efficiency>
0.35

>  <Binding Efficiency>
18.03

>  <Surface Efficiency>
13.32

>  <Assay Index>
545717

>  <Assay Category>


>  <Assay Organism>


>  <Target ID>
56

>  <Target Name>
Androgen Receptor

>  <Target Organism>
Homo sapiens

>  <Target Description>
Target is a single protein chain

>  <Sequence Accession>
P10275

>  <Reference>
Bioorg Med Chem Lett 21 (1), 168-171 (2011)

>  <Pubmed ID>
21115247

>  <DOI>
10.1016/j.bmcl.2010.11.047

$$$$
1069944
Actelion Java MolfileCreator 1.0

 26 28  0  0  0  0  0  0  0  0999 V2000
    0.0000   -0.0000   -0.0000 S   0  0  0  0  0  0  0  0  0  0  0  0
   -1.3101   -0.7384   -0.0000 O   0  0  0  0  0  0  0  0  0  0  0  0
    1.2863   -0.7384   -0.0000 O   0  0  0  0  0  0  0  0  0  0  0  0
   -0.0119    1.5126   -0.0000 N   0  0  0  0  0  0  0  0  0  0  0  0
   -0.0238   -1.4888   -0.0000 C   0  0  0  0  0  0  0  0  0  0  0  0
    1.2744    2.2748   -0.0000 C   0  0  0  0  0  0  0  0  0  0  0  0
    2.5607    1.5364   -0.0000 C   0  0  0  0  0  0  0  0  0  0  0  0
    1.2625    3.7874   -0.0000 C   0  0  0  0  0  0  0  0  0  0  0  0
    3.8589    2.2987   -0.0000 C   0  0  0  0  0  0  0  0  0  0  0  0
    2.5488    4.5497   -0.0000 C   0  0  0  0  0  0  0  0  0  0  0  0
    5.2881    1.8461   -0.0000 N   0  0  0  0  0  0  0  0  0  0  0  0
    3.8351    3.8232   -0.0000 C   0  0  0  0  0  0  0  0  0  0  0  0
    6.1576    3.0847   -0.0000 C   0  0  0  0  0  0  0  0  0  0  0  0
    5.7526    0.4288   -0.0000 C   0  0  0  0  0  0  0  0  0  0  0  0
    5.2643    4.3115   -0.0000 C   0  0  0  0  0  0  0  0  0  0  0  0
    7.2057    0.1429   -0.0000 C   0  0  0  0  0  0  0  0  0  0  0  0
    4.7402   -0.6789   -0.0000 C   0  0  0  0  0  0  0  0  0  0  0  0
    5.9908    5.6216   -0.0000 C   0  0  0  0  0  0  0  0  0  0  0  0
    7.6701   -1.2744   -0.0000 C   0  0  0  0  0  0  0  0  0  0  0  0
    7.4796    5.6335   -0.0000 C   0  0  0  0  0  0  0  0  0  0  0  0
    5.2286    6.9198   -0.0000 C   0  0  0  0  0  0  0  0  0  0  0  0
    8.2180    6.9436   -0.0000 C   0  0  0  0  0  0  0  0  0  0  0  0
    5.9551    8.2299   -0.0000 C   0  0  0  0  0  0  0  0  0  0  0  0
    7.4558    8.2537   -0.0000 C   0  0  0  0  0  0  0  0  0  0  0  0
    8.1823    9.5639   -0.0000 C   0  0  0  0  0  0  0  0  0  0  0  0
    8.9207   10.8740   -0.0000 N   0  0  0  0  0  0  0  0  0  0  0  0
  1  2  2  0  0  0  0
  1  3  2  0  0  0  0
  1  4  1  0  0  0  0
  1  5  1  0  0  0  0
  4  6  1  0  0  0  0
  6  7  2  0  0  0  0
  6  8  1  0  0  0  0
  7  9  1  0  0  0  0
  8 10  2  0  0  0  0
  9 11  1  0  0  0  0
  9 12  2  0  0  0  0
 11 13  1  0  0  0  0
 14 11  1  6  0  0  0
 12 15  1  0  0  0  0
 14 16  1  0  0  0  0
 14 17  1  0  0  0  0
 15 18  1  0  0  0  0
 16 19  1  0  0  0  0
 18 20  2  0  0  0  0
 18 21  1  0  0  0  0
 20 22  1  0  0  0  0
 21 23  2  0  0  0  0
 22 24  2  0  0  0  0
 24 25  1  0  0  0  0
 25 26  3  0  0  0  0
 10 12  1  0  0  0  0
 13 15  2  0  0  0  0
 23 24  1  0  0  0  0
M  END
>  <MolRegNo>
1069944

>  <m>
=

>  <Value>
2550

>  <Unit>
nM

>  <Type>
Ki

>  <pValue>
5.59

>  <Ligand Efficiency>
0.29

>  <Binding Efficiency>
15.22

>  <Surface Efficiency>
7.47

>  <Assay Index>
562959

>  <Assay Category>


>  <Assay Organism>
Homo sapiens

>  <Target ID>
56

>  <Target Name>
Androgen Receptor

>  <Target Organism>
Homo sapiens

>  <Target Description>
Target is a single protein chain

>  <Sequence Accession>
P10275

>  <Reference>
ACS Med Chem Lett 2 (2), 148-153 (2011)

>  <Pubmed ID>
24900294

>  <DOI>
10.1021/ml100220b

$$$$
1069942
Actelion Java MolfileCreator 1.0

 26 28  0  0  0  0  0  0  0  0999 V2000
    0.0000   -0.0000   -0.0000 S   0  0  0  0  0  0  0  0  0  0  0  0
   -1.3102   -0.7385   -0.0000 O   0  0  0  0  0  0  0  0  0  0  0  0
    1.2864   -0.7385   -0.0000 O   0  0  0  0  0  0  0  0  0  0  0  0
   -0.0119    1.5127   -0.0000 N   0  0  0  0  0  0  0  0  0  0  0  0
   -0.0238   -1.4889   -0.0000 C   0  0  0  0  0  0  0  0  0  0  0  0
    1.2745    2.2750   -0.0000 C   0  0  0  0  0  0  0  0  0  0  0  0
    2.5608    1.5365   -0.0000 C   0  0  0  0  0  0  0  0  0  0  0  0
    1.2626    3.7877   -0.0000 C   0  0  0  0  0  0  0  0  0  0  0  0
    3.8591    2.2988   -0.0000 C   0  0  0  0  0  0  0  0  0  0  0  0
    2.5489    4.5500   -0.0000 C   0  0  0  0  0  0  0  0  0  0  0  0
    5.2885    1.8462   -0.0000 N   0  0  0  0  0  0  0  0  0  0  0  0
    3.8353    3.8234   -0.0000 C   0  0  0  0  0  0  0  0  0  0  0  0
    6.1579    3.0849   -0.0000 C   0  0  0  0  0  0  0  0  0  0  0  0
    5.7530    0.4288   -0.0000 C   0  0  0  0  0  0  0  0  0  0  0  0
    5.2646    4.3118   -0.0000 C   0  0  0  0  0  0  0  0  0  0  0  0
    4.7405   -0.6789   -0.0000 C   0  0  0  0  0  0  0  0  0  0  0  0
    7.2061    0.1429   -0.0000 C   0  0  0  0  0  0  0  0  0  0  0  0
    5.9912    5.6220   -0.0000 C   0  0  0  0  0  0  0  0  0  0  0  0
    7.4801    5.6339   -0.0000 C   0  0  0  0  0  0  0  0  0  0  0  0
    5.2289    6.9202   -0.0000 C   0  0  0  0  0  0  0  0  0  0  0  0
    8.2185    6.9441   -0.0000 C   0  0  0  0  0  0  0  0  0  0  0  0
    5.9555    8.2304   -0.0000 C   0  0  0  0  0  0  0  0  0  0  0  0
    9.7074    6.9560   -0.0000 F   0  0  0  0  0  0  0  0  0  0  0  0
    7.4562    8.2543   -0.0000 C   0  0  0  0  0  0  0  0  0  0  0  0
    8.1828    9.5645   -0.0000 C   0  0  0  0  0  0  0  0  0  0  0  0
    8.9213   10.8747   -0.0000 N   0  0  0  0  0  0  0  0  0  0  0  0
  1  2  2  0  0  0  0
  1  3  2  0  0  0  0
  1  4  1  0  0  0  0
  1  5  1  0  0  0  0
  4  6  1  0  0  0  0
  6  7  2  0  0  0  0
  6  8  1  0  0  0  0
  7  9  1  0  0  0  0
  8 10  2  0  0  0  0
  9 11  1  0  0  0  0
  9 12  2  0  0  0  0
 11 13  1  0  0  0  0
 11 14  1  0  0  0  0
 12 15  1  0  0  0  0
 14 16  1  0  0  0  0
 14 17  1  0  0  0  0
 15 18  1  0  0  0  0
 18 19  2  0  0  0  0
 18 20  1  0  0  0  0
 19 21  1  0  0  0  0
 20 22  2  0  0  0  0
 21 23  1  0  0  0  0
 21 24  2  0  0  0  0
 24 25  1  0  0  0  0
 25 26  3  0  0  0  0
 10 12  1  0  0  0  0
 13 15  2  0  0  0  0
 22 24  1  0  0  0  0
M  END
>  <MolRegNo>
1069942

>  <m>
=

>  <Value>
648

>  <Unit>
nM

>  <Type>
Ki

>  <pValue>
6.19

>  <Ligand Efficiency>
0.33

>  <Binding Efficiency>
16.66

>  <Surface Efficiency>
8.26

>  <Assay Index>
562959

>  <Assay Category>


>  <Assay Organism>
Homo sapiens

>  <Target ID>
56

>  <Target Name>
Androgen Receptor

>  <Target Organism>
Homo sapiens

>  <Target Description>
Target is a single protein chain

>  <Sequence Accession>
P10275

>  <Reference>
ACS Med Chem Lett 2 (2), 148-153 (2011)

>  <Pubmed ID>
24900294

>  <DOI>
10.1021/ml100220b

$$$$
1069941
Actelion Java MolfileCreator 1.0

 27 29  0  0  0  0  0  0  0  0999 V2000
    0.0000   -0.0000   -0.0000 S   0  0  0  0  0  0  0  0  0  0  0  0
   -1.3107   -0.7388   -0.0000 O   0  0  0  0  0  0  0  0  0  0  0  0
    1.2869   -0.7388   -0.0000 O   0  0  0  0  0  0  0  0  0  0  0  0
   -0.0119    1.5133   -0.0000 N   0  0  0  0  0  0  0  0  0  0  0  0
   -0.0238   -1.4894   -0.0000 C   0  0  0  0  0  0  0  0  0  0  0  0
    1.2750    2.2759   -0.0000 C   0  0  0  0  0  0  0  0  0  0  0  0
    2.5618    1.5371   -0.0000 C   0  0  0  0  0  0  0  0  0  0  0  0
    1.2630    3.7891   -0.0000 C   0  0  0  0  0  0  0  0  0  0  0  0
    3.8606    2.2997   -0.0000 C   0  0  0  0  0  0  0  0  0  0  0  0
    2.5499    4.5517   -0.0000 C   0  0  0  0  0  0  0  0  0  0  0  0
    5.2905    1.8469   -0.0000 N   0  0  0  0  0  0  0  0  0  0  0  0
    3.8368    3.8249   -0.0000 C   0  0  0  0  0  0  0  0  0  0  0  0
    6.1603    3.0861   -0.0000 C   0  0  0  0  0  0  0  0  0  0  0  0
    5.7552    0.4290   -0.0000 C   0  0  0  0  0  0  0  0  0  0  0  0
    5.2667    4.3134   -0.0000 C   0  0  0  0  0  0  0  0  0  0  0  0
    4.7424   -0.6792   -0.0000 C   0  0  0  0  0  0  0  0  0  0  0  0
    7.2089    0.1430   -0.0000 C   0  0  0  0  0  0  0  0  0  0  0  0
    5.9935    5.6241   -0.0000 C   0  0  0  0  0  0  0  0  0  0  0  0
    7.4829    5.6360   -0.0000 C   0  0  0  0  0  0  0  0  0  0  0  0
    5.2309    6.9229   -0.0000 C   0  0  0  0  0  0  0  0  0  0  0  0
    8.2217    6.9467   -0.0000 C   0  0  0  0  0  0  0  0  0  0  0  0
    5.9578    8.2336   -0.0000 C   0  0  0  0  0  0  0  0  0  0  0  0
    9.7111    6.9587   -0.0000 O   0  0  0  0  0  0  0  0  0  0  0  0
    7.4591    8.2574   -0.0000 C   0  0  0  0  0  0  0  0  0  0  0  0
   10.4499    5.6718   -0.0000 C   0  0  0  0  0  0  0  0  0  0  0  0
    8.1860    9.5682   -0.0000 C   0  0  0  0  0  0  0  0  0  0  0  0
    8.9247   10.8789   -0.0000 N   0  0  0  0  0  0  0  0  0  0  0  0
  1  2  2  0  0  0  0
  1  3  2  0  0  0  0
  1  4  1  0  0  0  0
  1  5  1  0  0  0  0
  4  6  1  0  0  0  0
  6  7  2  0  0  0  0
  6  8  1  0  0  0  0
  7  9  1  0  0  0  0
  8 10  2  0  0  0  0
  9 11  1  0  0  0  0
  9 12  2  0  0  0  0
 11 13  1  0  0  0  0
 11 14  1  0  0  0  0
 12 15  1  0  0  0  0
 14 16  1  0  0  0  0
 14 17  1  0  0  0  0
 15 18  1  0  0  0  0
 18 19  2  0  0  0  0
 18 20  1  0  0  0  0
 19 21  1  0  0  0  0
 20 22  2  0  0  0  0
 21 23  1  0  0  0  0
 21 24  2  0  0  0  0
 23 25  1  0  0  0  0
 24 26  1  0  0  0  0
 26 27  3  0  0  0  0
 10 12  1  0  0  0  0
 13 15  2  0  0  0  0
 22 24  1  0  0  0  0
M  END
>  <MolRegNo>
1069941

>  <m>
=

>  <Value>
490

>  <Unit>
nM

>  <Type>
Ki

>  <pValue>
6.31

>  <Ligand Efficiency>
0.32

>  <Binding Efficiency>
16.45

>  <Surface Efficiency>
7.5

>  <Assay Index>
562959

>  <Assay Category>


>  <Assay Organism>
Homo sapiens

>  <Target ID>
56

>  <Target Name>
Androgen Receptor

>  <Target Organism>
Homo sapiens

>  <Target Description>
Target is a single protein chain

>  <Sequence Accession>
P10275

>  <Reference>
ACS Med Chem Lett 2 (2), 148-153 (2011)

>  <Pubmed ID>
24900294

>  <DOI>
10.1021/ml100220b

$$$$
1069934
Actelion Java MolfileCreator 1.0

 26 28  0  0  0  0  0  0  0  0999 V2000
    0.0000   -0.0000   -0.0000 S   0  0  0  0  0  0  0  0  0  0  0  0
   -1.3102   -0.7385   -0.0000 O   0  0  0  0  0  0  0  0  0  0  0  0
    1.2864   -0.7385   -0.0000 O   0  0  0  0  0  0  0  0  0  0  0  0
   -0.0119    1.5127   -0.0000 N   0  0  0  0  0  0  0  0  0  0  0  0
   -0.0238   -1.4889   -0.0000 C   0  0  0  0  0  0  0  0  0  0  0  0
    1.2745    2.2750   -0.0000 C   0  0  0  0  0  0  0  0  0  0  0  0
    2.5608    1.5365   -0.0000 C   0  0  0  0  0  0  0  0  0  0  0  0
    1.2626    3.7877   -0.0000 C   0  0  0  0  0  0  0  0  0  0  0  0
    3.8591    2.2988   -0.0000 C   0  0  0  0  0  0  0  0  0  0  0  0
    2.5489    4.5500   -0.0000 C   0  0  0  0  0  0  0  0  0  0  0  0
    5.2885    1.8462   -0.0000 N   0  0  0  0  0  0  0  0  0  0  0  0
    3.8353    3.8234   -0.0000 C   0  0  0  0  0  0  0  0  0  0  0  0
    6.1579    3.0849   -0.0000 C   0  0  0  0  0  0  0  0  0  0  0  0
    5.7530    0.4288   -0.0000 C   0  0  0  0  0  0  0  0  0  0  0  0
    5.2646    4.3118   -0.0000 C   0  0  0  0  0  0  0  0  0  0  0  0
    4.7405   -0.6789   -0.0000 C   0  0  0  0  0  0  0  0  0  0  0  0
    7.2061    0.1429   -0.0000 C   0  0  0  0  0  0  0  0  0  0  0  0
    5.9912    5.6220   -0.0000 C   0  0  0  0  0  0  0  0  0  0  0  0
    7.4801    5.6339   -0.0000 C   0  0  0  0  0  0  0  0  0  0  0  0
    5.2289    6.9202   -0.0000 C   0  0  0  0  0  0  0  0  0  0  0  0
    8.2185    6.9441   -0.0000 C   0  0  0  0  0  0  0  0  0  0  0  0
    5.9555    8.2304   -0.0000 C   0  0  0  0  0  0  0  0  0  0  0  0
    7.4562    8.2543   -0.0000 C   0  0  0  0  0  0  0  0  0  0  0  0
    9.7074    6.9560   -0.0000 C   0  0  0  0  0  0  0  0  0  0  0  0
    8.1828    9.5645   -0.0000 C   0  0  0  0  0  0  0  0  0  0  0  0
    8.9213   10.8747   -0.0000 N   0  0  0  0  0  0  0  0  0  0  0  0
  1  2  2  0  0  0  0
  1  3  2  0  0  0  0
  1  4  1  0  0  0  0
  1  5  1  0  0  0  0
  4  6  1  0  0  0  0
  6  7  2  0  0  0  0
  6  8  1  0  0  0  0
  7  9  1  0  0  0  0
  8 10  2  0  0  0  0
  9 11  1  0  0  0  0
  9 12  2  0  0  0  0
 11 13  1  0  0  0  0
 11 14  1  0  0  0  0
 12 15  1  0  0  0  0
 14 16  1  0  0  0  0
 14 17  1  0  0  0  0
 15 18  1  0  0  0  0
 18 19  2  0  0  0  0
 18 20  1  0  0  0  0
 19 21  1  0  0  0  0
 20 22  2  0  0  0  0
 21 23  2  0  0  0  0
 21 24  1  0  0  0  0
 23 25  1  0  0  0  0
 25 26  3  0  0  0  0
 10 12  1  0  0  0  0
 13 15  2  0  0  0  0
 22 23  1  0  0  0  0
M  END
>  <MolRegNo>
1069934

>  <m>
=

>  <Value>
403

>  <Unit>
nM

>  <Type>
Ki

>  <pValue>
6.39

>  <Ligand Efficiency>
0.34

>  <Binding Efficiency>
17.4

>  <Surface Efficiency>
8.54

>  <Assay Index>
562959

>  <Assay Category>


>  <Assay Organism>
Homo sapiens

>  <Target ID>
56

>  <Target Name>
Androgen Receptor

>  <Target Organism>
Homo sapiens

>  <Target Description>
Target is a single protein chain

>  <Sequence Accession>
P10275

>  <Reference>
ACS Med Chem Lett 2 (2), 148-153 (2011)

>  <Pubmed ID>
24900294

>  <DOI>
10.1021/ml100220b

$$$$
1069939
Actelion Java MolfileCreator 1.0

 24 26  0  0  0  0  0  0  0  0999 V2000
    0.0000   -0.0000   -0.0000 S   0  0  0  0  0  0  0  0  0  0  0  0
   -1.3092   -0.7379   -0.0000 O   0  0  0  0  0  0  0  0  0  0  0  0
    1.2854   -0.7379   -0.0000 O   0  0  0  0  0  0  0  0  0  0  0  0
   -0.0119    1.5115   -0.0000 N   0  0  0  0  0  0  0  0  0  0  0  0
   -0.0238   -1.4877   -0.0000 C   0  0  0  0  0  0  0  0  0  0  0  0
    1.2735    2.2732   -0.0000 C   0  0  0  0  0  0  0  0  0  0  0  0
    2.5589    1.5353   -0.0000 C   0  0  0  0  0  0  0  0  0  0  0  0
    1.2616    3.7848   -0.0000 C   0  0  0  0  0  0  0  0  0  0  0  0
    3.8562    2.2970   -0.0000 C   0  0  0  0  0  0  0  0  0  0  0  0
    2.5470    4.5465   -0.0000 C   0  0  0  0  0  0  0  0  0  0  0  0
    5.2844    1.8448   -0.0000 N   0  0  0  0  0  0  0  0  0  0  0  0
    3.8324    3.8205   -0.0000 C   0  0  0  0  0  0  0  0  0  0  0  0
    6.1532    3.0826   -0.0000 C   0  0  0  0  0  0  0  0  0  0  0  0
    5.7485    0.4285   -0.0000 C   0  0  0  0  0  0  0  0  0  0  0  0
    5.2606    4.3084   -0.0000 C   0  0  0  0  0  0  0  0  0  0  0  0
    4.7369   -0.6784   -0.0000 C   0  0  0  0  0  0  0  0  0  0  0  0
    5.9866    5.6176   -0.0000 C   0  0  0  0  0  0  0  0  0  0  0  0
    7.4743    5.6295   -0.0000 C   0  0  0  0  0  0  0  0  0  0  0  0
    5.2249    6.9149   -0.0000 C   0  0  0  0  0  0  0  0  0  0  0  0
    8.2122    6.9387   -0.0000 C   0  0  0  0  0  0  0  0  0  0  0  0
    5.9509    8.2241   -0.0000 C   0  0  0  0  0  0  0  0  0  0  0  0
    7.4505    8.2479   -0.0000 C   0  0  0  0  0  0  0  0  0  0  0  0
    8.1765    9.5571   -0.0000 C   0  0  0  0  0  0  0  0  0  0  0  0
    8.9144   10.8663   -0.0000 N   0  0  0  0  0  0  0  0  0  0  0  0
  1  2  2  0  0  0  0
  1  3  2  0  0  0  0
  1  4  1  0  0  0  0
  1  5  1  0  0  0  0
  4  6  1  0  0  0  0
  6  7  2  0  0  0  0
  6  8  1  0  0  0  0
  7  9  1  0  0  0  0
  8 10  2  0  0  0  0
  9 11  1  0  0  0  0
  9 12  2  0  0  0  0
 11 13  1  0  0  0  0
 11 14  1  0  0  0  0
 12 15  1  0  0  0  0
 14 16  1  0  0  0  0
 15 17  1  0  0  0  0
 17 18  2  0  0  0  0
 17 19  1  0  0  0  0
 18 20  1  0  0  0  0
 19 21  2  0  0  0  0
 20 22  2  0  0  0  0
 22 23  1  0  0  0  0
 23 24  3  0  0  0  0
 10 12  1  0  0  0  0
 13 15  2  0  0  0  0
 21 22  1  0  0  0  0
M  END
>  <MolRegNo>
1069939

>  <m>
=

>  <Value>
2590

>  <Unit>
nM

>  <Type>
Ki

>  <pValue>
5.59

>  <Ligand Efficiency>
0.32

>  <Binding Efficiency>
16.46

>  <Surface Efficiency>
7.46

>  <Assay Index>
562959

>  <Assay Category>


>  <Assay Organism>
Homo sapiens

>  <Target ID>
56

>  <Target Name>
Androgen Receptor

>  <Target Organism>
Homo sapiens

>  <Target Description>
Target is a single protein chain

>  <Sequence Accession>
P10275

>  <Reference>
ACS Med Chem Lett 2 (2), 148-153 (2011)

>  <Pubmed ID>
24900294

>  <DOI>
10.1021/ml100220b

$$$$
398780
Actelion Java MolfileCreator 1.0

 27 30  0  0  1  0  0  0  0  0999 V2000
    0.0000   -0.0000   -0.0000 S   0  0  0  0  0  0  0  0  0  0  0  0
    0.7338   -1.2901   -0.0000 O   0  0  0  0  0  0  0  0  0  0  0  0
   -0.7575    1.3137   -0.0000 O   0  0  0  0  0  0  0  0  0  0  0  0
    1.2901    0.7575   -0.0000 N   0  0  0  0  0  0  0  0  0  0  0  0
   -1.3137   -0.7220   -0.0000 C   0  0  0  0  0  0  0  0  0  0  0  0
    1.2782    2.2724   -0.0000 C   0  0  0  0  0  0  0  0  0  0  0  0
    2.5683    3.0417   -0.0000 C   0  0  0  0  0  0  0  0  0  0  0  0
   -0.0237    3.0299   -0.0000 C   0  0  0  0  0  0  0  0  0  0  0  0
    3.9885    2.5920   -0.0000 N   0  0  0  0  0  0  0  0  0  0  0  0
    2.5565    4.5567   -0.0000 C   0  0  0  0  0  0  0  0  0  0  0  0
   -0.0355    4.5448   -0.0000 C   0  0  0  0  0  0  0  0  0  0  0  0
    4.8644    3.8229   -0.0000 C   0  0  0  0  0  0  0  0  0  0  0  0
    3.9767    5.0301   -0.0000 C   0  0  0  0  0  0  0  0  0  0  0  0
    1.2427    5.3141   -0.0000 C   0  0  0  0  0  0  0  0  0  0  0  0
    4.4265    6.4622   -0.0000 C   0  0  0  0  0  0  0  0  0  0  0  0
    4.7934    7.9179   -0.0000 C   0  0  0  0  0  0  0  0  0  0  0  0
    5.8467    6.0479   -0.0000 C   0  0  0  0  0  0  0  0  0  0  0  0
    2.9825    6.9001   -0.0000 C   0  0  0  0  0  0  0  0  0  0  0  0
    3.7163    8.9713   -0.0000 C   0  0  0  0  0  0  0  0  0  0  0  0
    6.2255    8.3203   -0.0000 C   0  0  0  0  0  0  0  0  0  0  0  0
    6.8646    4.9827   -0.0000 C   0  0  0  0  0  0  0  0  0  0  0  0
    7.2788    6.4148   -0.0000 C   0  0  0  0  0  0  0  0  0  0  0  0
    2.2606    8.5807   -0.0000 F   0  0  0  0  0  0  0  0  0  0  0  0
    4.0832   10.4270   -0.0000 C   0  0  0  0  0  0  0  0  0  0  0  0
    6.5923    9.7761   -0.0000 C   0  0  0  0  0  0  0  0  0  0  0  0
    5.5272   10.8413   -0.0000 C   0  0  0  0  0  0  0  0  0  0  0  0
    5.8941   12.2970   -0.0000 F   0  0  0  0  0  0  0  0  0  0  0  0
  1  2  2  0  0  0  0
  1  3  2  0  0  0  0
  1  4  1  0  0  0  0
  1  5  1  0  0  0  0
  4  6  1  0  0  0  0
  6  7  2  0  0  0  0
  6  8  1  0  0  0  0
  7  9  1  0  0  0  0
  7 10  1  0  0  0  0
  8 11  2  0  0  0  0
  9 12  1  0  0  0  0
 10 13  1  0  0  0  0
 10 14  2  0  0  0  0
 13 15  1  0  0  0  0
 15 16  1  6  0  0  0
 15 17  1  0  0  0  0
 15 18  1  0  0  0  0
 16 19  2  0  0  0  0
 16 20  1  0  0  0  0
 17 21  1  0  0  0  0
 17 22  1  0  0  0  0
 19 23  1  0  0  0  0
 19 24  1  0  0  0  0
 20 25  2  0  0  0  0
 24 26  2  0  0  0  0
 26 27  1  0  0  0  0
 11 14  1  0  0  0  0
 12 13  2  0  0  0  0
 21 22  1  0  0  0  0
 25 26  1  0  0  0  0
M  END
>  <MolRegNo>
398780

>  <m>
=

>  <Value>
676

>  <Unit>
nM

>  <Type>
Ki

>  <pValue>
6.17

>  <Ligand Efficiency>
0.31

>  <Binding Efficiency>
15.8

>  <Surface Efficiency>
9.96

>  <Assay Index>
562959

>  <Assay Category>


>  <Assay Organism>
Homo sapiens

>  <Target ID>
56

>  <Target Name>
Androgen Receptor

>  <Target Organism>
Homo sapiens

>  <Target Description>
Target is a single protein chain

>  <Sequence Accession>
P10275

>  <Reference>
ACS Med Chem Lett 2 (2), 148-153 (2011)

>  <Pubmed ID>
24900294

>  <DOI>
10.1021/ml100220b

$$$$
1069935
Actelion Java MolfileCreator 1.0

 26 29  0  0  0  0  0  0  0  0999 V2000
    0.0000   -0.0000   -0.0000 S   0  0  0  0  0  0  0  0  0  0  0  0
   -0.0119   -1.4835   -0.0000 O   0  0  0  0  0  0  0  0  0  0  0  0
   -1.3054    0.7595   -0.0000 O   0  0  0  0  0  0  0  0  0  0  0  0
    1.2817    0.7595   -0.0000 N   0  0  0  0  0  0  0  0  0  0  0  0
   -1.3173   -0.7239   -0.0000 C   0  0  0  0  0  0  0  0  0  0  0  0
    1.2698    2.2667   -0.0000 C   0  0  0  0  0  0  0  0  0  0  0  0
    2.5515    3.0262   -0.0000 C   0  0  0  0  0  0  0  0  0  0  0  0
   -0.0356    3.0262   -0.0000 C   0  0  0  0  0  0  0  0  0  0  0  0
    3.9757    2.5753   -0.0000 N   0  0  0  0  0  0  0  0  0  0  0  0
    2.5397    4.5453   -0.0000 C   0  0  0  0  0  0  0  0  0  0  0  0
   -0.0475    4.5334   -0.0000 C   0  0  0  0  0  0  0  0  0  0  0  0
    4.8539    3.8095   -0.0000 C   0  0  0  0  0  0  0  0  0  0  0  0
    3.9638    5.0200   -0.0000 C   0  0  0  0  0  0  0  0  0  0  0  0
    1.2342    5.3048   -0.0000 C   0  0  0  0  0  0  0  0  0  0  0  0
    4.4148    6.4560   -0.0000 C   0  0  0  0  0  0  0  0  0  0  0  0
    5.7202    7.1918   -0.0000 C   0  0  0  0  0  0  0  0  0  0  0  0
    3.8332    7.8445   -0.0000 C   0  0  0  0  0  0  0  0  0  0  0  0
    2.8957    6.4679   -0.0000 C   0  0  0  0  0  0  0  0  0  0  0  0
    6.9782    6.4204   -0.0000 C   0  0  0  0  0  0  0  0  0  0  0  0
    5.7321    8.6871   -0.0000 C   0  0  0  0  0  0  0  0  0  0  0  0
    4.0113    9.3398   -0.0000 C   0  0  0  0  0  0  0  0  0  0  0  0
    2.6346    8.7702   -0.0000 C   0  0  0  0  0  0  0  0  0  0  0  0
    8.2717    7.1562   -0.0000 C   0  0  0  0  0  0  0  0  0  0  0  0
    7.0256    9.4229   -0.0000 C   0  0  0  0  0  0  0  0  0  0  0  0
    8.2955    8.6634   -0.0000 C   0  0  0  0  0  0  0  0  0  0  0  0
    9.5891    9.3992   -0.0000 F   0  0  0  0  0  0  0  0  0  0  0  0
  1  2  2  0  0  0  0
  1  3  2  0  0  0  0
  1  4  1  0  0  0  0
  1  5  1  0  0  0  0
  4  6  1  0  0  0  0
  6  7  2  0  0  0  0
  6  8  1  0  0  0  0
  7  9  1  0  0  0  0
  7 10  1  0  0  0  0
  8 11  2  0  0  0  0
  9 12  1  0  0  0  0
 10 13  1  0  0  0  0
 10 14  2  0  0  0  0
 13 15  1  0  0  0  0
 15 16  1  0  0  0  0
 15 17  1  0  0  0  0
 15 18  1  0  0  0  0
 16 19  2  0  0  0  0
 16 20  1  0  0  0  0
 17 21  1  0  0  0  0
 17 22  1  0  0  0  0
 19 23  1  0  0  0  0
 20 24  2  0  0  0  0
 23 25  2  0  0  0  0
 25 26  1  0  0  0  0
 11 14  1  0  0  0  0
 12 13  2  0  0  0  0
 21 22  1  0  0  0  0
 24 25  1  0  0  0  0
M  END
>  <MolRegNo>
1069935

>  <m>
=

>  <Value>
220

>  <Unit>
nM

>  <Type>
Ki

>  <pValue>
6.66

>  <Ligand Efficiency>
0.35

>  <Binding Efficiency>
17.87

>  <Surface Efficiency>
10.74

>  <Assay Index>
562959

>  <Assay Category>


>  <Assay Organism>
Homo sapiens

>  <Target ID>
56

>  <Target Name>
Androgen Receptor

>  <Target Organism>
Homo sapiens

>  <Target Description>
Target is a single protein chain

>  <Sequence Accession>
P10275

>  <Reference>
ACS Med Chem Lett 2 (2), 148-153 (2011)

>  <Pubmed ID>
24900294

>  <DOI>
10.1021/ml100220b

$$$$
1069933
Actelion Java MolfileCreator 1.0

 24 27  0  0  0  0  0  0  0  0999 V2000
    0.0000   -0.0000   -0.0000 O   0  0  0  0  0  0  0  0  0  0  0  0
    0.7765   -1.2663   -0.0000 C   0  0  0  0  0  0  0  0  0  0  0  0
    0.7049    1.3380   -0.0000 C   0  0  0  0  0  0  0  0  0  0  0  0
    2.2579   -1.2066   -0.0000 C   0  0  0  0  0  0  0  0  0  0  0  0
    0.0597   -2.5805   -0.0000 C   0  0  0  0  0  0  0  0  0  0  0  0
    3.0344   -2.4729   -0.0000 C   0  0  0  0  0  0  0  0  0  0  0  0
    0.8363   -3.8349   -0.0000 C   0  0  0  0  0  0  0  0  0  0  0  0
    2.3057   -3.7751   -0.0000 C   0  0  0  0  0  0  0  0  0  0  0  0
    3.0822   -5.0415   -0.0000 C   0  0  0  0  0  0  0  0  0  0  0  0
    4.5756   -5.0295   -0.0000 C   0  0  0  0  0  0  0  0  0  0  0  0
    2.6044   -6.4631   -0.0000 C   0  0  0  0  0  0  0  0  0  0  0  0
    5.3043   -6.3198   -0.0000 C   0  0  0  0  0  0  0  0  0  0  0  0
    5.3043   -3.7154   -0.0000 C   0  0  0  0  0  0  0  0  0  0  0  0
    1.1469   -6.9171   -0.0000 C   0  0  0  0  0  0  0  0  0  0  0  0
    3.4884   -7.6817   -0.0000 C   0  0  0  0  0  0  0  0  0  0  0  0
    6.7976   -6.3078   -0.0000 C   0  0  0  0  0  0  0  0  0  0  0  0
    6.7976   -3.6915   -0.0000 C   0  0  0  0  0  0  0  0  0  0  0  0
    1.1349   -8.4224   -0.0000 C   0  0  0  0  0  0  0  0  0  0  0  0
   -0.1673   -6.1525   -0.0000 C   0  0  0  0  0  0  0  0  0  0  0  0
    2.5805   -8.9002   -0.0000 N   0  0  0  0  0  0  0  0  0  0  0  0
    7.5383   -4.9937   -0.0000 C   0  0  0  0  0  0  0  0  0  0  0  0
   -0.1792   -9.1631   -0.0000 C   0  0  0  0  0  0  0  0  0  0  0  0
   -1.4814   -6.8932   -0.0000 C   0  0  0  0  0  0  0  0  0  0  0  0
   -1.4933   -8.3985   -0.0000 C   0  0  0  0  0  0  0  0  0  0  0  0
  1  2  1  0  0  0  0
  1  3  1  0  0  0  0
  2  4  2  0  0  0  0
  2  5  1  0  0  0  0
  4  6  1  0  0  0  0
  5  7  2  0  0  0  0
  6  8  2  0  0  0  0
  8  9  1  0  0  0  0
  9 10  1  0  0  0  0
  9 11  1  0  0  0  0
 10 12  2  0  0  0  0
 10 13  1  0  0  0  0
 11 14  1  0  0  0  0
 11 15  2  0  0  0  0
 12 16  1  0  0  0  0
 13 17  2  0  0  0  0
 14 18  2  0  0  0  0
 14 19  1  0  0  0  0
 15 20  1  0  0  0  0
 16 21  2  0  0  0  0
 18 22  1  0  0  0  0
 19 23  2  0  0  0  0
 22 24  2  0  0  0  0
  7  8  1  0  0  0  0
 17 21  1  0  0  0  0
 18 20  1  0  0  0  0
 23 24  1  0  0  0  0
M  END
>  <MolRegNo>
1069933

>  <m>
=

>  <Value>
68.9

>  <Unit>
nM

>  <Type>
Ki

>  <pValue>
7.16

>  <Ligand Efficiency>
0.41

>  <Binding Efficiency>
22.85

>  <Surface Efficiency>
28.62

>  <Assay Index>
562959

>  <Assay Category>


>  <Assay Organism>
Homo sapiens

>  <Target ID>
56

>  <Target Name>
Androgen Receptor

>  <Target Organism>
Homo sapiens

>  <Target Description>
Target is a single protein chain

>  <Sequence Accession>
P10275

>  <Reference>
ACS Med Chem Lett 2 (2), 148-153 (2011)

>  <Pubmed ID>
24900294

>  <DOI>
10.1021/ml100220b

$$$$
1070037
Actelion Java MolfileCreator 1.0

 28 30  0  0  1  0  0  0  0  0999 V2000
    0.0000   -0.0000   -0.0000 Cl  0  0  0  0  0  0  0  0  0  0  0  0
   -0.6238    1.3770   -0.0000 C   0  0  0  0  0  0  0  0  0  0  0  0
    0.2472    2.6010   -0.0000 C   0  0  0  0  0  0  0  0  0  0  0  0
   -2.1185    1.5418   -0.0000 C   0  0  0  0  0  0  0  0  0  0  0  0
    1.7183    2.4598   -0.0000 C   0  0  0  0  0  0  0  0  0  0  0  0
   -0.3766    3.9780   -0.0000 C   0  0  0  0  0  0  0  0  0  0  0  0
   -2.7423    2.9188   -0.0000 C   0  0  0  0  0  0  0  0  0  0  0  0
   -3.0130    0.3413   -0.0000 C   0  0  0  0  0  0  0  0  0  0  0  0
    3.1895    2.3186   -0.0000 N   0  0  0  0  0  0  0  0  0  0  0  0
   -1.8713    4.1428   -0.0000 C   0  0  0  0  0  0  0  0  0  0  0  0
   -4.2370    3.0836   -0.0000 N   0  0  0  0  0  0  0  0  0  0  0  0
   -4.8607    4.4606   -0.0000 C   0  0  0  0  0  0  0  0  0  0  0  0
   -6.3554    4.6254   -0.0000 C   0  0  0  0  0  0  0  0  0  0  0  0
   -3.9898    5.6846   -0.0000 C   0  0  0  0  0  0  0  0  0  0  0  0
   -7.3676    3.5308   -0.0000 O   0  0  0  0  0  0  0  0  0  0  0  0
   -7.1205    5.9318   -0.0000 N   0  0  0  0  0  0  0  0  0  0  0  0
   -4.6136    7.0616   -0.0000 O   0  0  0  0  0  0  0  0  0  0  0  0
   -2.5186    5.5434   -0.0000 C   0  0  0  0  0  0  0  0  0  0  0  0
   -8.7446    4.1546   -0.0000 C   0  0  0  0  0  0  0  0  0  0  0  0
   -8.5916    5.6375   -0.0000 N   0  0  0  0  0  0  0  0  0  0  0  0
  -10.0510    3.4249   -0.0000 C   0  0  0  0  0  0  0  0  0  0  0  0
  -10.0628    1.9419   -0.0000 C   0  0  0  0  0  0  0  0  0  0  0  0
  -11.3574    4.1781   -0.0000 C   0  0  0  0  0  0  0  0  0  0  0  0
  -11.3692    1.2005   -0.0000 C   0  0  0  0  0  0  0  0  0  0  0  0
  -12.6638    3.4484   -0.0000 C   0  0  0  0  0  0  0  0  0  0  0  0
  -12.6756    1.9655   -0.0000 C   0  0  0  0  0  0  0  0  0  0  0  0
  -13.9820    1.2240   -0.0000 C   0  0  0  0  0  0  0  0  0  0  0  0
  -15.2884    0.4943   -0.0000 N   0  0  0  0  0  0  0  0  0  0  0  0
  1  2  1  0  0  0  0
  2  3  2  0  0  0  0
  2  4  1  0  0  0  0
  3  5  1  0  0  0  0
  3  6  1  0  0  0  0
  4  7  2  0  0  0  0
  4  8  1  0  0  0  0
  5  9  3  0  0  0  0
  6 10  2  0  0  0  0
  7 11  1  0  0  0  0
 12 11  1  1  0  0  0
 12 13  1  0  0  0  0
 12 14  1  0  0  0  0
 13 15  1  0  0  0  0
 13 16  2  0  0  0  0
 14 17  1  1  0  0  0
 14 18  1  0  0  0  0
 15 19  1  0  0  0  0
 16 20  1  0  0  0  0
 19 21  1  0  0  0  0
 21 22  2  0  0  0  0
 21 23  1  0  0  0  0
 22 24  1  0  0  0  0
 23 25  2  0  0  0  0
 24 26  2  0  0  0  0
 26 27  1  0  0  0  0
 27 28  3  0  0  0  0
  7 10  1  0  0  0  0
 19 20  2  0  0  0  0
 25 26  1  0  0  0  0
M  END
>  <MolRegNo>
1070037

>  <m>
=

>  <Value>
7

>  <Unit>
nM

>  <Type>
Ki

>  <pValue>
8.15

>  <Ligand Efficiency>
0.4

>  <Binding Efficiency>
20.71

>  <Surface Efficiency>
6.87

>  <Assay Index>
562691

>  <Assay Category>


>  <Assay Organism>


>  <Target ID>
56

>  <Target Name>
Androgen Receptor

>  <Target Organism>
Homo sapiens

>  <Target Description>
Target is a single protein chain

>  <Sequence Accession>
P10275

>  <Reference>
ACS Med Chem Lett 2 (2), 124-129 (2011)

>  <Pubmed ID>
24900290

>  <DOI>
10.1021/ml1002508

$$$$
1072488
Actelion Java MolfileCreator 1.0

 25 28  0  0  0  0  0  0  0  0999 V2000
    0.0000   -0.0000   -0.0000 F   0  0  0  0  0  0  0  0  0  0  0  0
   -0.0238   -1.4856   -0.0000 C   0  0  0  0  0  0  0  0  0  0  0  0
   -1.3430   -2.2105   -0.0000 C   0  0  0  0  0  0  0  0  0  0  0  0
    1.2598   -2.2343   -0.0000 C   0  0  0  0  0  0  0  0  0  0  0  0
   -1.3786   -3.7080   -0.0000 C   0  0  0  0  0  0  0  0  0  0  0  0
   -2.6502   -1.4261   -0.0000 C   0  0  0  0  0  0  0  0  0  0  0  0
    1.2241   -3.7199   -0.0000 C   0  0  0  0  0  0  0  0  0  0  0  0
    2.5552   -1.4856   -0.0000 C   0  0  0  0  0  0  0  0  0  0  0  0
   -2.7097   -4.4210   -0.0000 F   0  0  0  0  0  0  0  0  0  0  0  0
   -0.0951   -4.4686   -0.0000 C   0  0  0  0  0  0  0  0  0  0  0  0
   -2.6384    0.0832   -0.0000 C   0  0  0  0  0  0  0  0  0  0  0  0
   -3.9694   -2.1392   -0.0000 C   0  0  0  0  0  0  0  0  0  0  0  0
    2.4957   -4.4686   -0.0000 N   0  0  0  0  0  0  0  0  0  0  0  0
    3.8387   -2.2462   -0.0000 C   0  0  0  0  0  0  0  0  0  0  0  0
    2.5314    0.0357   -0.0000 C   0  0  0  0  0  0  0  0  0  0  0  0
   -1.5212    1.0815   -0.0000 N   0  0  0  0  0  0  0  0  0  0  0  0
   -3.9457    0.8557   -0.0000 C   0  0  0  0  0  0  0  0  0  0  0  0
   -5.2767   -1.3548   -0.0000 C   0  0  0  0  0  0  0  0  0  0  0  0
    3.7912   -3.7317   -0.0000 C   0  0  0  0  0  0  0  0  0  0  0  0
    5.1341   -1.4974   -0.0000 O   0  0  0  0  0  0  0  0  0  0  0  0
   -2.1273    2.4720   -0.0000 C   0  0  0  0  0  0  0  0  0  0  0  0
   -5.2530    0.1426   -0.0000 C   0  0  0  0  0  0  0  0  0  0  0  0
   -3.6248    2.3294   -0.0000 C   0  0  0  0  0  0  0  0  0  0  0  0
    3.7674   -5.2173   -0.0000 C   0  0  0  0  0  0  0  0  0  0  0  0
    5.2767   -3.7199   -0.0000 C   0  0  0  0  0  0  0  0  0  0  0  0
  1  2  1  0  0  0  0
  2  3  2  0  0  0  0
  2  4  1  0  0  0  0
  3  5  1  0  0  0  0
  3  6  1  0  0  0  0
  4  7  2  0  0  0  0
  4  8  1  0  0  0  0
  5  9  1  0  0  0  0
  5 10  2  0  0  0  0
  6 11  2  0  0  0  0
  6 12  1  0  0  0  0
  7 13  1  0  0  0  0
  8 14  1  0  0  0  0
  8 15  1  1  0  0  0
 11 16  1  0  0  0  0
 11 17  1  0  0  0  0
 12 18  2  0  0  0  0
 13 19  1  0  0  0  0
 14 20  1  6  0  0  0
 16 21  1  0  0  0  0
 17 22  2  0  0  0  0
 17 23  1  0  0  0  0
 19 24  1  0  0  0  0
 19 25  1  0  0  0  0
  7 10  1  0  0  0  0
 14 19  1  0  0  0  0
 18 22  1  0  0  0  0
 21 23  2  0  0  0  0
M  END
>  <MolRegNo>
1072488

>  <m>
=

>  <Value>
1430

>  <Unit>
nM

>  <Type>
Ki

>  <pValue>
5.84

>  <Ligand Efficiency>
0.32

>  <Binding Efficiency>
17.07

>  <Surface Efficiency>
12.16

>  <Assay Index>
572484

>  <Assay Category>


>  <Assay Organism>


>  <Target ID>
56

>  <Target Name>
Androgen Receptor

>  <Target Organism>
Homo sapiens

>  <Target Description>
Target is a single protein chain

>  <Sequence Accession>
P10275

>  <Reference>
Bioorg Med Chem Lett 21 (6), 1697-1700 (2011)

>  <Pubmed ID>
21316964

>  <DOI>
10.1016/j.bmcl.2011.01.093

$$$$
1139501
Actelion Java MolfileCreator 1.0

 29 32  0  0  0  0  0  0  0  0999 V2000
    0.0000   -0.0000   -0.0000 F   0  0  0  0  0  0  0  0  0  0  0  0
   -0.0119   -1.4839   -0.0000 C   0  0  0  0  0  0  0  0  0  0  0  0
   -1.3177   -2.2199   -0.0000 C   0  0  0  0  0  0  0  0  0  0  0  0
    1.2702   -2.2318   -0.0000 C   0  0  0  0  0  0  0  0  0  0  0  0
   -1.3296   -3.7038   -0.0000 C   0  0  0  0  0  0  0  0  0  0  0  0
   -2.6236   -1.4483   -0.0000 C   0  0  0  0  0  0  0  0  0  0  0  0
    1.2465   -3.7276   -0.0000 C   0  0  0  0  0  0  0  0  0  0  0  0
    2.5642   -1.4720   -0.0000 C   0  0  0  0  0  0  0  0  0  0  0  0
   -2.6473   -4.4399   -0.0000 F   0  0  0  0  0  0  0  0  0  0  0  0
   -0.0475   -4.4399   -0.0000 C   0  0  0  0  0  0  0  0  0  0  0  0
   -3.9413   -2.1843   -0.0000 C   0  0  0  0  0  0  0  0  0  0  0  0
   -2.6354    0.0712   -0.0000 C   0  0  0  0  0  0  0  0  0  0  0  0
    2.5286   -4.4755   -0.0000 N   0  0  0  0  0  0  0  0  0  0  0  0
    2.5642    0.0356   -0.0000 N   0  0  0  0  0  0  0  0  0  0  0  0
    3.8463   -2.2318   -0.0000 C   0  0  0  0  0  0  0  0  0  0  0  0
   -4.2618   -3.6445   -0.0000 N   0  0  0  0  0  0  0  0  0  0  0  0
   -5.2590   -1.4127   -0.0000 C   0  0  0  0  0  0  0  0  0  0  0  0
   -3.9531    0.8429   -0.0000 C   0  0  0  0  0  0  0  0  0  0  0  0
    3.8226   -3.7276   -0.0000 C   0  0  0  0  0  0  0  0  0  0  0  0
    3.8582    0.7835   -0.0000 O   0  0  0  0  0  0  0  0  0  0  0  0
    5.1403   -1.4839   -0.0000 O   0  0  0  0  0  0  0  0  0  0  0  0
   -5.7695   -3.7869   -0.0000 C   0  0  0  0  0  0  0  0  0  0  0  0
   -6.3868   -2.4099   -0.0000 C   0  0  0  0  0  0  0  0  0  0  0  0
   -5.2590    0.1068   -0.0000 C   0  0  0  0  0  0  0  0  0  0  0  0
    5.0928   -2.9560   -0.0000 C   0  0  0  0  0  0  0  0  0  0  0  0
    5.0928   -4.4636   -0.0000 C   0  0  0  0  0  0  0  0  0  0  0  0
    3.8582    2.2912   -0.0000 C   0  0  0  0  0  0  0  0  0  0  0  0
   -7.7045   -1.6382   -0.0000 C   0  0  0  0  0  0  0  0  0  0  0  0
    5.1521    3.0391   -0.0000 C   0  0  0  0  0  0  0  0  0  0  0  0
  1  2  1  0  0  0  0
  2  3  2  0  0  0  0
  2  4  1  0  0  0  0
  3  5  1  0  0  0  0
  3  6  1  0  0  0  0
  4  7  2  0  0  0  0
  4  8  1  0  0  0  0
  5  9  1  0  0  0  0
  5 10  2  0  0  0  0
  6 11  2  0  0  0  0
  6 12  1  0  0  0  0
  7 13  1  0  0  0  0
  8 14  2  0  0  0  0
  8 15  1  0  0  0  0
 11 16  1  0  0  0  0
 11 17  1  0  0  0  0
 12 18  2  0  0  0  0
 13 19  1  0  0  0  0
 14 20  1  0  0  0  0
 15 21  1  0  0  0  0
 16 22  1  0  0  0  0
 17 23  1  0  0  0  0
 17 24  2  0  0  0  0
 19 25  1  0  0  0  0
 19 26  1  0  0  0  0
 20 27  1  0  0  0  0
 23 28  1  0  0  0  0
 27 29  1  0  0  0  0
  7 10  1  0  0  0  0
 15 19  1  0  0  0  0
 18 24  1  0  0  0  0
 22 23  2  0  0  0  0
M  END
>  <MolRegNo>
1139501

>  <m>
=

>  <Value>
430

>  <Unit>
nM

>  <Type>
Ki

>  <pValue>
6.37

>  <Ligand Efficiency>
0.3

>  <Binding Efficiency>
15.94

>  <Surface Efficiency>
9.14

>  <Assay Index>
582479

>  <Assay Category>


>  <Assay Organism>


>  <Target ID>
56

>  <Target Name>
Androgen Receptor

>  <Target Organism>
Homo sapiens

>  <Target Description>
Target is a single protein chain

>  <Sequence Accession>
P10275

>  <Reference>
Bioorg Med Chem Lett 21 (6), 1654-1657 (2011)

>  <Pubmed ID>
21324689

>  <DOI>
10.1016/j.bmcl.2011.01.104

$$$$
1139500
Actelion Java MolfileCreator 1.0

 28 31  0  0  0  0  0  0  0  0999 V2000
    0.0000   -0.0000   -0.0000 F   0  0  0  0  0  0  0  0  0  0  0  0
   -0.0119   -1.4837   -0.0000 C   0  0  0  0  0  0  0  0  0  0  0  0
   -1.3176   -2.2197   -0.0000 C   0  0  0  0  0  0  0  0  0  0  0  0
    1.2701   -2.2315   -0.0000 C   0  0  0  0  0  0  0  0  0  0  0  0
   -1.3294   -3.7034   -0.0000 C   0  0  0  0  0  0  0  0  0  0  0  0
   -2.6233   -1.4481   -0.0000 C   0  0  0  0  0  0  0  0  0  0  0  0
    1.2463   -3.7272   -0.0000 C   0  0  0  0  0  0  0  0  0  0  0  0
    2.5639   -1.4719   -0.0000 C   0  0  0  0  0  0  0  0  0  0  0  0
   -2.6470   -4.4394   -0.0000 F   0  0  0  0  0  0  0  0  0  0  0  0
   -0.0475   -4.4394   -0.0000 C   0  0  0  0  0  0  0  0  0  0  0  0
   -3.9408   -2.1841   -0.0000 C   0  0  0  0  0  0  0  0  0  0  0  0
   -2.6351    0.0712   -0.0000 C   0  0  0  0  0  0  0  0  0  0  0  0
    2.5283   -4.4750   -0.0000 N   0  0  0  0  0  0  0  0  0  0  0  0
    2.5639    0.0356   -0.0000 N   0  0  0  0  0  0  0  0  0  0  0  0
    3.8459   -2.2315   -0.0000 C   0  0  0  0  0  0  0  0  0  0  0  0
   -4.2613   -3.6441   -0.0000 N   0  0  0  0  0  0  0  0  0  0  0  0
   -5.2584   -1.4125   -0.0000 C   0  0  0  0  0  0  0  0  0  0  0  0
   -3.9527    0.8428   -0.0000 C   0  0  0  0  0  0  0  0  0  0  0  0
    3.8221   -3.7272   -0.0000 C   0  0  0  0  0  0  0  0  0  0  0  0
    3.8577    0.7834   -0.0000 O   0  0  0  0  0  0  0  0  0  0  0  0
    5.1397   -1.4837   -0.0000 O   0  0  0  0  0  0  0  0  0  0  0  0
   -5.7688   -3.7865   -0.0000 C   0  0  0  0  0  0  0  0  0  0  0  0
   -6.3860   -2.4096   -0.0000 C   0  0  0  0  0  0  0  0  0  0  0  0
   -5.2584    0.1068   -0.0000 C   0  0  0  0  0  0  0  0  0  0  0  0
    5.0922   -2.9556   -0.0000 C   0  0  0  0  0  0  0  0  0  0  0  0
    5.0922   -4.4631   -0.0000 C   0  0  0  0  0  0  0  0  0  0  0  0
    3.8577    2.2909   -0.0000 C   0  0  0  0  0  0  0  0  0  0  0  0
   -7.7036   -1.6380   -0.0000 C   0  0  0  0  0  0  0  0  0  0  0  0
  1  2  1  0  0  0  0
  2  3  2  0  0  0  0
  2  4  1  0  0  0  0
  3  5  1  0  0  0  0
  3  6  1  0  0  0  0
  4  7  2  0  0  0  0
  4  8  1  0  0  0  0
  5  9  1  0  0  0  0
  5 10  2  0  0  0  0
  6 11  2  0  0  0  0
  6 12  1  0  0  0  0
  7 13  1  0  0  0  0
  8 14  2  0  0  0  0
  8 15  1  0  0  0  0
 11 16  1  0  0  0  0
 11 17  1  0  0  0  0
 12 18  2  0  0  0  0
 13 19  1  0  0  0  0
 14 20  1  0  0  0  0
 15 21  1  0  0  0  0
 16 22  1  0  0  0  0
 17 23  1  0  0  0  0
 17 24  2  0  0  0  0
 19 25  1  0  0  0  0
 19 26  1  0  0  0  0
 20 27  1  0  0  0  0
 23 28  1  0  0  0  0
  7 10  1  0  0  0  0
 15 19  1  0  0  0  0
 18 24  1  0  0  0  0
 22 23  2  0  0  0  0
M  END
>  <MolRegNo>
1139500

>  <m>
=

>  <Value>
2800

>  <Unit>
nM

>  <Type>
Ki

>  <pValue>
5.55

>  <Ligand Efficiency>
0.27

>  <Binding Efficiency>
14.41

>  <Surface Efficiency>
7.97

>  <Assay Index>
582479

>  <Assay Category>


>  <Assay Organism>


>  <Target ID>
56

>  <Target Name>
Androgen Receptor

>  <Target Organism>
Homo sapiens

>  <Target Description>
Target is a single protein chain

>  <Sequence Accession>
P10275

>  <Reference>
Bioorg Med Chem Lett 21 (6), 1654-1657 (2011)

>  <Pubmed ID>
21324689

>  <DOI>
10.1016/j.bmcl.2011.01.104

$$$$
1139499
Actelion Java MolfileCreator 1.0

 31 34  0  0  0  0  0  0  0  0999 V2000
    0.0000   -0.0000   -0.0000 F   0  0  0  0  0  0  0  0  0  0  0  0
   -0.0119   -1.4832   -0.0000 C   0  0  0  0  0  0  0  0  0  0  0  0
   -1.3170   -2.2188   -0.0000 C   0  0  0  0  0  0  0  0  0  0  0  0
    1.2696   -2.2307   -0.0000 C   0  0  0  0  0  0  0  0  0  0  0  0
   -1.3289   -3.7019   -0.0000 C   0  0  0  0  0  0  0  0  0  0  0  0
   -2.6222   -1.4476   -0.0000 C   0  0  0  0  0  0  0  0  0  0  0  0
    1.2458   -3.7257   -0.0000 C   0  0  0  0  0  0  0  0  0  0  0  0
    2.5629   -1.4713   -0.0000 C   0  0  0  0  0  0  0  0  0  0  0  0
   -2.6459   -4.4376   -0.0000 F   0  0  0  0  0  0  0  0  0  0  0  0
   -0.0475   -4.4376   -0.0000 C   0  0  0  0  0  0  0  0  0  0  0  0
   -3.9392   -2.1832   -0.0000 C   0  0  0  0  0  0  0  0  0  0  0  0
   -2.6341    0.0712   -0.0000 C   0  0  0  0  0  0  0  0  0  0  0  0
    2.5273   -4.4732   -0.0000 N   0  0  0  0  0  0  0  0  0  0  0  0
    2.5629    0.0356   -0.0000 N   0  0  0  0  0  0  0  0  0  0  0  0
    3.8443   -2.2307   -0.0000 C   0  0  0  0  0  0  0  0  0  0  0  0
   -4.2596   -3.6426   -0.0000 N   0  0  0  0  0  0  0  0  0  0  0  0
   -5.2563   -1.4120   -0.0000 C   0  0  0  0  0  0  0  0  0  0  0  0
   -3.9511    0.8424   -0.0000 C   0  0  0  0  0  0  0  0  0  0  0  0
    3.8206   -3.7257   -0.0000 C   0  0  0  0  0  0  0  0  0  0  0  0
    3.8562    0.7831   -0.0000 O   0  0  0  0  0  0  0  0  0  0  0  0
   -5.7665   -3.7850   -0.0000 C   0  0  0  0  0  0  0  0  0  0  0  0
   -6.3835   -2.4086   -0.0000 C   0  0  0  0  0  0  0  0  0  0  0  0
   -5.2563    0.1068   -0.0000 C   0  0  0  0  0  0  0  0  0  0  0  0
    5.0902   -2.9544   -0.0000 C   0  0  0  0  0  0  0  0  0  0  0  0
    5.0902   -4.4613   -0.0000 C   0  0  0  0  0  0  0  0  0  0  0  0
    3.8562    2.2900   -0.0000 C   0  0  0  0  0  0  0  0  0  0  0  0
   -7.7005   -1.6374   -0.0000 C   0  0  0  0  0  0  0  0  0  0  0  0
    5.1495    3.0375   -0.0000 C   0  0  0  0  0  0  0  0  0  0  0  0
    2.5510    3.0612   -0.0000 C   0  0  0  0  0  0  0  0  0  0  0  0
    3.8325    3.8087   -0.0000 C   0  0  0  0  0  0  0  0  0  0  0  0
    6.4309    2.2900   -0.0000 O   0  0  0  0  0  0  0  0  0  0  0  0
  1  2  1  0  0  0  0
  2  3  2  0  0  0  0
  2  4  1  0  0  0  0
  3  5  1  0  0  0  0
  3  6  1  0  0  0  0
  4  7  2  0  0  0  0
  4  8  1  0  0  0  0
  5  9  1  0  0  0  0
  5 10  2  0  0  0  0
  6 11  2  0  0  0  0
  6 12  1  0  0  0  0
  7 13  1  0  0  0  0
  8 14  2  0  0  0  0
  8 15  1  0  0  0  0
 11 16  1  0  0  0  0
 11 17  1  0  0  0  0
 12 18  2  0  0  0  0
 13 19  1  0  0  0  0
 14 20  1  0  0  0  0
 16 21  1  0  0  0  0
 17 22  1  0  0  0  0
 17 23  2  0  0  0  0
 19 24  1  0  0  0  0
 19 25  1  0  0  0  0
 20 26  1  0  0  0  0
 22 27  1  0  0  0  0
 26 28  1  0  0  0  0
 26 29  1  0  0  0  0
 26 30  1  0  0  0  0
 28 31  1  0  0  0  0
  7 10  1  0  0  0  0
 15 19  1  0  0  0  0
 18 23  1  0  0  0  0
 21 22  2  0  0  0  0
M  END
>  <MolRegNo>
1139499

>  <m>
=

>  <Value>
290

>  <Unit>
nM

>  <Type>
Ki

>  <pValue>
6.54

>  <Ligand Efficiency>
0.29

>  <Binding Efficiency>
15.29

>  <Surface Efficiency>
9.39

>  <Assay Index>
582479

>  <Assay Category>


>  <Assay Organism>


>  <Target ID>
56

>  <Target Name>
Androgen Receptor

>  <Target Organism>
Homo sapiens

>  <Target Description>
Target is a single protein chain

>  <Sequence Accession>
P10275

>  <Reference>
Bioorg Med Chem Lett 21 (6), 1654-1657 (2011)

>  <Pubmed ID>
21324689

>  <DOI>
10.1016/j.bmcl.2011.01.104

$$$$
1139494
Actelion Java MolfileCreator 1.0

 29 32  0  0  0  0  0  0  0  0999 V2000
    0.0000   -0.0000   -0.0000 F   0  0  0  0  0  0  0  0  0  0  0  0
   -0.0119   -1.4832   -0.0000 C   0  0  0  0  0  0  0  0  0  0  0  0
   -1.3171   -2.2189   -0.0000 C   0  0  0  0  0  0  0  0  0  0  0  0
    1.2696   -2.2308   -0.0000 C   0  0  0  0  0  0  0  0  0  0  0  0
   -1.3290   -3.7021   -0.0000 C   0  0  0  0  0  0  0  0  0  0  0  0
   -2.6223   -1.4476   -0.0000 C   0  0  0  0  0  0  0  0  0  0  0  0
    1.2459   -3.7259   -0.0000 C   0  0  0  0  0  0  0  0  0  0  0  0
    2.5630   -1.4714   -0.0000 C   0  0  0  0  0  0  0  0  0  0  0  0
   -2.6461   -4.4378   -0.0000 F   0  0  0  0  0  0  0  0  0  0  0  0
   -0.0475   -4.4378   -0.0000 C   0  0  0  0  0  0  0  0  0  0  0  0
   -3.9395   -2.1833   -0.0000 C   0  0  0  0  0  0  0  0  0  0  0  0
   -2.6342    0.0712   -0.0000 C   0  0  0  0  0  0  0  0  0  0  0  0
    2.5274   -4.4734   -0.0000 N   0  0  0  0  0  0  0  0  0  0  0  0
    2.5630    0.0356   -0.0000 N   0  0  0  0  0  0  0  0  0  0  0  0
    3.8445   -2.2308   -0.0000 C   0  0  0  0  0  0  0  0  0  0  0  0
   -4.2598   -3.6428   -0.0000 N   0  0  0  0  0  0  0  0  0  0  0  0
   -5.2566   -1.4120   -0.0000 C   0  0  0  0  0  0  0  0  0  0  0  0
   -3.9513    0.8425   -0.0000 C   0  0  0  0  0  0  0  0  0  0  0  0
    3.8208   -3.7259   -0.0000 C   0  0  0  0  0  0  0  0  0  0  0  0
    3.8564    0.7831   -0.0000 O   0  0  0  0  0  0  0  0  0  0  0  0
   -5.7668   -3.7852   -0.0000 C   0  0  0  0  0  0  0  0  0  0  0  0
   -6.3838   -2.4088   -0.0000 C   0  0  0  0  0  0  0  0  0  0  0  0
   -5.2566    0.1068   -0.0000 C   0  0  0  0  0  0  0  0  0  0  0  0
    5.0904   -2.9546   -0.0000 C   0  0  0  0  0  0  0  0  0  0  0  0
    5.0904   -4.4615   -0.0000 C   0  0  0  0  0  0  0  0  0  0  0  0
    3.8564    2.2901   -0.0000 C   0  0  0  0  0  0  0  0  0  0  0  0
   -7.7009   -1.6375   -0.0000 C   0  0  0  0  0  0  0  0  0  0  0  0
    5.1498    3.0376   -0.0000 C   0  0  0  0  0  0  0  0  0  0  0  0
    2.5512    3.0614   -0.0000 C   0  0  0  0  0  0  0  0  0  0  0  0
  1  2  1  0  0  0  0
  2  3  2  0  0  0  0
  2  4  1  0  0  0  0
  3  5  1  0  0  0  0
  3  6  1  0  0  0  0
  4  7  2  0  0  0  0
  4  8  1  0  0  0  0
  5  9  1  0  0  0  0
  5 10  2  0  0  0  0
  6 11  2  0  0  0  0
  6 12  1  0  0  0  0
  7 13  1  0  0  0  0
  8 14  2  0  0  0  0
  8 15  1  0  0  0  0
 11 16  1  0  0  0  0
 11 17  1  0  0  0  0
 12 18  2  0  0  0  0
 13 19  1  0  0  0  0
 14 20  1  0  0  0  0
 16 21  1  0  0  0  0
 17 22  1  0  0  0  0
 17 23  2  0  0  0  0
 19 24  1  0  0  0  0
 19 25  1  0  0  0  0
 20 26  1  0  0  0  0
 22 27  1  0  0  0  0
 26 28  1  0  0  0  0
 26 29  1  0  0  0  0
  7 10  1  0  0  0  0
 15 19  1  0  0  0  0
 18 23  1  0  0  0  0
 21 22  2  0  0  0  0
M  END
>  <MolRegNo>
1139494

>  <m>
=

>  <Value>
1500

>  <Unit>
nM

>  <Type>
Ki

>  <pValue>
5.82

>  <Ligand Efficiency>
0.27

>  <Binding Efficiency>
14.65

>  <Surface Efficiency>
11.79

>  <Assay Index>
582479

>  <Assay Category>


>  <Assay Organism>


>  <Target ID>
56

>  <Target Name>
Androgen Receptor

>  <Target Organism>
Homo sapiens

>  <Target Description>
Target is a single protein chain

>  <Sequence Accession>
P10275

>  <Reference>
Bioorg Med Chem Lett 21 (6), 1654-1657 (2011)

>  <Pubmed ID>
21324689

>  <DOI>
10.1016/j.bmcl.2011.01.104

$$$$
1139493
Actelion Java MolfileCreator 1.0

 30 33  0  0  0  0  0  0  0  0999 V2000
    0.0000   -0.0000   -0.0000 Cl  0  0  0  0  0  0  0  0  0  0  0  0
    1.2970   -0.7497   -0.0000 C   0  0  0  0  0  0  0  0  0  0  0  0
    2.4037    0.2737   -0.0000 C   0  0  0  0  0  0  0  0  0  0  0  0
    1.9039   -2.1181   -0.0000 C   0  0  0  0  0  0  0  0  0  0  0  0
    3.7007   -0.4641   -0.0000 C   0  0  0  0  0  0  0  0  0  0  0  0
    2.4037    1.7968   -0.0000 C   0  0  0  0  0  0  0  0  0  0  0  0
    3.3913   -1.9515   -0.0000 N   0  0  0  0  0  0  0  0  0  0  0  0
    4.9978    0.2975   -0.0000 C   0  0  0  0  0  0  0  0  0  0  0  0
    3.6888    2.5703   -0.0000 C   0  0  0  0  0  0  0  0  0  0  0  0
    6.2829   -0.4522   -0.0000 C   0  0  0  0  0  0  0  0  0  0  0  0
    4.9859    1.8206   -0.0000 C   0  0  0  0  0  0  0  0  0  0  0  0
    7.5680    0.3094   -0.0000 C   0  0  0  0  0  0  0  0  0  0  0  0
    6.2710   -1.9396   -0.0000 C   0  0  0  0  0  0  0  0  0  0  0  0
    7.5561    1.8206   -0.0000 F   0  0  0  0  0  0  0  0  0  0  0  0
    8.8532   -0.4403   -0.0000 C   0  0  0  0  0  0  0  0  0  0  0  0
    4.9502   -2.6774   -0.0000 F   0  0  0  0  0  0  0  0  0  0  0  0
    7.5561   -2.6774   -0.0000 C   0  0  0  0  0  0  0  0  0  0  0  0
    8.8294   -1.9396   -0.0000 C   0  0  0  0  0  0  0  0  0  0  0  0
   10.1502    0.3213   -0.0000 C   0  0  0  0  0  0  0  0  0  0  0  0
   10.1145   -2.6893   -0.0000 N   0  0  0  0  0  0  0  0  0  0  0  0
   10.1502    1.8325   -0.0000 N   0  0  0  0  0  0  0  0  0  0  0  0
   11.4354   -0.4403   -0.0000 C   0  0  0  0  0  0  0  0  0  0  0  0
   11.4116   -1.9396   -0.0000 C   0  0  0  0  0  0  0  0  0  0  0  0
   11.4473    2.5822   -0.0000 O   0  0  0  0  0  0  0  0  0  0  0  0
   12.6848   -1.1661   -0.0000 C   0  0  0  0  0  0  0  0  0  0  0  0
   12.6848   -2.6774   -0.0000 C   0  0  0  0  0  0  0  0  0  0  0  0
   11.4473    4.0934   -0.0000 C   0  0  0  0  0  0  0  0  0  0  0  0
   12.7443    4.8431   -0.0000 C   0  0  0  0  0  0  0  0  0  0  0  0
   10.1383    4.8669   -0.0000 C   0  0  0  0  0  0  0  0  0  0  0  0
   11.4235    5.6165   -0.0000 C   0  0  0  0  0  0  0  0  0  0  0  0
  1  2  1  0  0  0  0
  2  3  1  0  0  0  0
  2  4  2  0  0  0  0
  3  5  2  0  0  0  0
  3  6  1  0  0  0  0
  4  7  1  0  0  0  0
  5  8  1  0  0  0  0
  6  9  2  0  0  0  0
  8 10  1  0  0  0  0
  8 11  2  0  0  0  0
 10 12  2  0  0  0  0
 10 13  1  0  0  0  0
 12 14  1  0  0  0  0
 12 15  1  0  0  0  0
 13 16  1  0  0  0  0
 13 17  2  0  0  0  0
 15 18  2  0  0  0  0
 15 19  1  0  0  0  0
 18 20  1  0  0  0  0
 19 21  2  0  0  0  0
 19 22  1  0  0  0  0
 20 23  1  0  0  0  0
 21 24  1  0  0  0  0
 23 25  1  0  0  0  0
 23 26  1  0  0  0  0
 24 27  1  0  0  0  0
 27 28  1  0  0  0  0
 27 29  1  0  0  0  0
 27 30  1  0  0  0  0
  5  7  1  0  0  0  0
  9 11  1  0  0  0  0
 17 18  1  0  0  0  0
 22 23  1  0  0  0  0
M  END
>  <MolRegNo>
1139493

>  <m>
=

>  <Value>
90

>  <Unit>
nM

>  <Type>
Ki

>  <pValue>
7.05

>  <Ligand Efficiency>
0.32

>  <Binding Efficiency>
16.31

>  <Surface Efficiency>
14.26

>  <Assay Index>
582479

>  <Assay Category>


>  <Assay Organism>


>  <Target ID>
56

>  <Target Name>
Androgen Receptor

>  <Target Organism>
Homo sapiens

>  <Target Description>
Target is a single protein chain

>  <Sequence Accession>
P10275

>  <Reference>
Bioorg Med Chem Lett 21 (6), 1654-1657 (2011)

>  <Pubmed ID>
21324689

>  <DOI>
10.1016/j.bmcl.2011.01.104

$$$$
1139492
Actelion Java MolfileCreator 1.0

 30 33  0  0  0  0  0  0  0  0999 V2000
    0.0000   -0.0000   -0.0000 F   0  0  0  0  0  0  0  0  0  0  0  0
   -0.0119   -1.4830   -0.0000 C   0  0  0  0  0  0  0  0  0  0  0  0
   -1.3169   -2.2185   -0.0000 C   0  0  0  0  0  0  0  0  0  0  0  0
    1.2694   -2.2304   -0.0000 C   0  0  0  0  0  0  0  0  0  0  0  0
   -1.3288   -3.7015   -0.0000 C   0  0  0  0  0  0  0  0  0  0  0  0
   -2.6219   -1.4474   -0.0000 C   0  0  0  0  0  0  0  0  0  0  0  0
    1.2457   -3.7253   -0.0000 C   0  0  0  0  0  0  0  0  0  0  0  0
    2.5626   -1.4711   -0.0000 C   0  0  0  0  0  0  0  0  0  0  0  0
   -2.6456   -4.4371   -0.0000 F   0  0  0  0  0  0  0  0  0  0  0  0
   -0.0475   -4.4371   -0.0000 C   0  0  0  0  0  0  0  0  0  0  0  0
   -3.9388   -2.1830   -0.0000 C   0  0  0  0  0  0  0  0  0  0  0  0
   -2.6338    0.0712   -0.0000 C   0  0  0  0  0  0  0  0  0  0  0  0
    2.5270   -4.4727   -0.0000 N   0  0  0  0  0  0  0  0  0  0  0  0
    2.5626    0.0356   -0.0000 N   0  0  0  0  0  0  0  0  0  0  0  0
    3.8439   -2.2304   -0.0000 C   0  0  0  0  0  0  0  0  0  0  0  0
   -4.2591   -3.6422   -0.0000 N   0  0  0  0  0  0  0  0  0  0  0  0
   -5.2557   -1.4237   -0.0000 C   0  0  0  0  0  0  0  0  0  0  0  0
   -3.9507    0.8423   -0.0000 C   0  0  0  0  0  0  0  0  0  0  0  0
    3.8202   -3.7253   -0.0000 C   0  0  0  0  0  0  0  0  0  0  0  0
    3.8558    0.7830   -0.0000 O   0  0  0  0  0  0  0  0  0  0  0  0
   -5.7658   -3.7846   -0.0000 C   0  0  0  0  0  0  0  0  0  0  0  0
   -6.3828   -2.4202   -0.0000 C   0  0  0  0  0  0  0  0  0  0  0  0
   -5.2557    0.0949   -0.0000 C   0  0  0  0  0  0  0  0  0  0  0  0
    5.0896   -2.9541   -0.0000 C   0  0  0  0  0  0  0  0  0  0  0  0
    5.0896   -4.4608   -0.0000 C   0  0  0  0  0  0  0  0  0  0  0  0
    3.8558    2.2897   -0.0000 C   0  0  0  0  0  0  0  0  0  0  0  0
   -7.6997   -1.6491   -0.0000 C   0  0  0  0  0  0  0  0  0  0  0  0
    5.1489    3.0372   -0.0000 C   0  0  0  0  0  0  0  0  0  0  0  0
    2.5507    3.0609   -0.0000 C   0  0  0  0  0  0  0  0  0  0  0  0
    3.8320    3.8083   -0.0000 C   0  0  0  0  0  0  0  0  0  0  0  0
  1  2  1  0  0  0  0
  2  3  2  0  0  0  0
  2  4  1  0  0  0  0
  3  5  1  0  0  0  0
  3  6  1  0  0  0  0
  4  7  2  0  0  0  0
  4  8  1  0  0  0  0
  5  9  1  0  0  0  0
  5 10  2  0  0  0  0
  6 11  2  0  0  0  0
  6 12  1  0  0  0  0
  7 13  1  0  0  0  0
  8 14  2  0  0  0  0
  8 15  1  0  0  0  0
 11 16  1  0  0  0  0
 11 17  1  0  0  0  0
 12 18  2  0  0  0  0
 13 19  1  0  0  0  0
 14 20  1  0  0  0  0
 16 21  1  0  0  0  0
 17 22  1  0  0  0  0
 17 23  2  0  0  0  0
 19 24  1  0  0  0  0
 19 25  1  0  0  0  0
 20 26  1  0  0  0  0
 22 27  1  0  0  0  0
 26 28  1  0  0  0  0
 26 29  1  0  0  0  0
 26 30  1  0  0  0  0
  7 10  1  0  0  0  0
 15 19  1  0  0  0  0
 18 23  1  0  0  0  0
 21 22  2  0  0  0  0
M  END
>  <MolRegNo>
1139492

>  <m>
=

>  <Value>
1000

>  <Unit>
nM

>  <Type>
Ki

>  <pValue>
6

>  <Ligand Efficiency>
0.27

>  <Binding Efficiency>
14.58

>  <Surface Efficiency>
12.14

>  <Assay Index>
582479

>  <Assay Category>


>  <Assay Organism>


>  <Target ID>
56

>  <Target Name>
Androgen Receptor

>  <Target Organism>
Homo sapiens

>  <Target Description>
Target is a single protein chain

>  <Sequence Accession>
P10275

>  <Reference>
Bioorg Med Chem Lett 21 (6), 1654-1657 (2011)

>  <Pubmed ID>
21324689

>  <DOI>
10.1016/j.bmcl.2011.01.104

$$$$
1149151
Actelion Java MolfileCreator 1.0

 32 34  0  0  0  0  0  0  0  0999 V2000
    0.0000   -0.0000   -0.0000 S   0  0  0  0  0  0  0  0  0  0  0  0
   -0.4039   -1.4373   -0.0000 O   0  0  0  0  0  0  0  0  0  0  0  0
    0.7246   -1.2828   -0.0000 O   0  0  0  0  0  0  0  0  0  0  0  0
    1.2828    0.7602   -0.0000 C   0  0  0  0  0  0  0  0  0  0  0  0
   -1.3066    0.7602   -0.0000 C   0  0  0  0  0  0  0  0  0  0  0  0
    2.5657    0.0238   -0.0000 C   0  0  0  0  0  0  0  0  0  0  0  0
    1.2591    2.2687   -0.0000 C   0  0  0  0  0  0  0  0  0  0  0  0
   -2.6132    0.0238   -0.0000 C   0  0  0  0  0  0  0  0  0  0  0  0
    3.8485    0.7840   -0.0000 C   0  0  0  0  0  0  0  0  0  0  0  0
    2.5538   -1.4610   -0.0000 C   0  0  0  0  0  0  0  0  0  0  0  0
    2.5419    3.0408   -0.0000 C   0  0  0  0  0  0  0  0  0  0  0  0
   -1.8886   -1.2591   -0.0000 O   0  0  0  0  0  0  0  0  0  0  0  0
   -3.9198    0.7840   -0.0000 C   0  0  0  0  0  0  0  0  0  0  0  0
   -3.3853   -1.2591   -0.0000 C   0  0  0  0  0  0  0  0  0  0  0  0
    3.8366    2.2925   -0.0000 C   0  0  0  0  0  0  0  0  0  0  0  0
    5.1314    0.0594   -0.0000 C   0  0  0  0  0  0  0  0  0  0  0  0
    3.8366   -2.1975   -0.0000 C   0  0  0  0  0  0  0  0  0  0  0  0
   -3.9317    2.2925   -0.0000 O   0  0  0  0  0  0  0  0  0  0  0  0
   -5.2264    0.0475   -0.0000 N   0  0  0  0  0  0  0  0  0  0  0  0
    5.1314   -1.4254   -0.0000 C   0  0  0  0  0  0  0  0  0  0  0  0
   -6.5330    0.8077   -0.0000 C   0  0  0  0  0  0  0  0  0  0  0  0
   -7.8514    0.0713   -0.0000 C   0  0  0  0  0  0  0  0  0  0  0  0
   -6.5448    2.3281   -0.0000 C   0  0  0  0  0  0  0  0  0  0  0  0
   -9.1580    0.8315   -0.0000 C   0  0  0  0  0  0  0  0  0  0  0  0
   -7.8514    3.0883   -0.0000 C   0  0  0  0  0  0  0  0  0  0  0  0
   -9.1699    2.3519   -0.0000 C   0  0  0  0  0  0  0  0  0  0  0  0
  -10.4646    0.0950   -0.0000 C   0  0  0  0  0  0  0  0  0  0  0  0
  -10.4884    3.1121   -0.0000 C   0  0  0  0  0  0  0  0  0  0  0  0
  -11.7712    0.8552   -0.0000 F   0  0  0  0  0  0  0  0  0  0  0  0
  -10.4765   -1.3897   -0.0000 F   0  0  0  0  0  0  0  0  0  0  0  0
  -11.7831   -0.6295   -0.0000 F   0  0  0  0  0  0  0  0  0  0  0  0
  -11.7950    3.8723   -0.0000 N   0  0  0  0  0  0  0  0  0  0  0  0
  1  2  2  0  0  0  0
  1  3  2  0  0  0  0
  1  4  1  0  0  0  0
  1  5  1  0  0  0  0
  4  6  1  0  0  0  0
  4  7  2  0  0  0  0
  5  8  1  0  0  0  0
  6  9  1  0  0  0  0
  6 10  2  0  0  0  0
  7 11  1  0  0  0  0
  8 12  1  6  0  0  0
  8 13  1  0  0  0  0
  8 14  1  0  0  0  0
  9 15  1  0  0  0  0
  9 16  2  0  0  0  0
 10 17  1  0  0  0  0
 13 18  2  0  0  0  0
 13 19  1  0  0  0  0
 16 20  1  0  0  0  0
 19 21  1  0  0  0  0
 21 22  2  0  0  0  0
 21 23  1  0  0  0  0
 22 24  1  0  0  0  0
 23 25  2  0  0  0  0
 24 26  2  0  0  0  0
 24 27  1  0  0  0  0
 26 28  1  0  0  0  0
 27 29  1  0  0  0  0
 27 30  1  0  0  0  0
 27 31  1  0  0  0  0
 28 32  3  0  0  0  0
 11 15  2  0  0  0  0
 17 20  2  0  0  0  0
 25 26  1  0  0  0  0
M  END
>  <MolRegNo>
1149151

>  <m>
=

>  <Value>
2000

>  <Unit>
nM

>  <Type>
Ki

>  <pValue>
5.7

>  <Ligand Efficiency>
0.24

>  <Binding Efficiency>
12.32

>  <Surface Efficiency>
5.31

>  <Assay Index>
594732

>  <Assay Category>


>  <Assay Organism>


>  <Target ID>
56

>  <Target Name>
Androgen Receptor

>  <Target Organism>
Homo sapiens

>  <Target Description>
Target is a single protein chain

>  <Sequence Accession>
P10275

>  <Reference>
J Med Chem 54 (11), 3973-3976 (2011)

>  <Pubmed ID>
21506597

>  <DOI>
10.1021/jm2000097

$$$$
1149152
Actelion Java MolfileCreator 1.0

 35 37  0  0  0  0  0  0  0  0999 V2000
    0.0000   -0.0000   -0.0000 S   0  0  0  0  0  0  0  0  0  0  0  0
   -0.4043   -1.4388   -0.0000 O   0  0  0  0  0  0  0  0  0  0  0  0
    0.7253   -1.2842   -0.0000 O   0  0  0  0  0  0  0  0  0  0  0  0
    1.2842    0.7610   -0.0000 C   0  0  0  0  0  0  0  0  0  0  0  0
   -1.3080    0.7610   -0.0000 C   0  0  0  0  0  0  0  0  0  0  0  0
    2.5684    0.0238   -0.0000 C   0  0  0  0  0  0  0  0  0  0  0  0
    1.2604    2.2712   -0.0000 C   0  0  0  0  0  0  0  0  0  0  0  0
   -2.6160    0.0238   -0.0000 C   0  0  0  0  0  0  0  0  0  0  0  0
    3.8526    0.7848   -0.0000 C   0  0  0  0  0  0  0  0  0  0  0  0
    2.5565   -1.4626   -0.0000 C   0  0  0  0  0  0  0  0  0  0  0  0
    2.5446    3.0441   -0.0000 C   0  0  0  0  0  0  0  0  0  0  0  0
   -1.8906   -1.2604   -0.0000 O   0  0  0  0  0  0  0  0  0  0  0  0
   -3.9240    0.7848   -0.0000 C   0  0  0  0  0  0  0  0  0  0  0  0
   -3.3889   -1.2604   -0.0000 C   0  0  0  0  0  0  0  0  0  0  0  0
    3.8407    2.2949   -0.0000 C   0  0  0  0  0  0  0  0  0  0  0  0
    3.8407   -2.1998   -0.0000 C   0  0  0  0  0  0  0  0  0  0  0  0
   -3.9359    2.2949   -0.0000 O   0  0  0  0  0  0  0  0  0  0  0  0
   -5.2320    0.0476   -0.0000 N   0  0  0  0  0  0  0  0  0  0  0  0
    3.8289   -3.6862   -0.0000 C   0  0  0  0  0  0  0  0  0  0  0  0
    5.1131   -1.4388   -0.0000 C   0  0  0  0  0  0  0  0  0  0  0  0
   -6.5400    0.8086   -0.0000 C   0  0  0  0  0  0  0  0  0  0  0  0
    5.1131   -4.4234   -0.0000 C   0  0  0  0  0  0  0  0  0  0  0  0
    6.3973   -2.1641   -0.0000 C   0  0  0  0  0  0  0  0  0  0  0  0
   -7.8599    0.0713   -0.0000 C   0  0  0  0  0  0  0  0  0  0  0  0
   -6.5519    2.3306   -0.0000 C   0  0  0  0  0  0  0  0  0  0  0  0
    6.3973   -3.6624   -0.0000 C   0  0  0  0  0  0  0  0  0  0  0  0
   -9.1679    0.8324   -0.0000 C   0  0  0  0  0  0  0  0  0  0  0  0
   -7.8599    3.0916   -0.0000 C   0  0  0  0  0  0  0  0  0  0  0  0
   -9.1797    2.3544   -0.0000 C   0  0  0  0  0  0  0  0  0  0  0  0
  -10.4758    0.0951   -0.0000 C   0  0  0  0  0  0  0  0  0  0  0  0
  -10.4996    3.1154   -0.0000 C   0  0  0  0  0  0  0  0  0  0  0  0
  -11.7838    0.8561   -0.0000 F   0  0  0  0  0  0  0  0  0  0  0  0
  -10.4877   -1.3912   -0.0000 F   0  0  0  0  0  0  0  0  0  0  0  0
  -11.7957   -0.6302   -0.0000 F   0  0  0  0  0  0  0  0  0  0  0  0
  -11.8076    3.8764   -0.0000 N   0  0  0  0  0  0  0  0  0  0  0  0
  1  2  2  0  0  0  0
  1  3  2  0  0  0  0
  1  4  1  0  0  0  0
  1  5  1  0  0  0  0
  4  6  2  0  0  0  0
  4  7  1  0  0  0  0
  5  8  1  0  0  0  0
  6  9  1  0  0  0  0
  6 10  1  0  0  0  0
  7 11  2  0  0  0  0
  8 12  1  6  0  0  0
  8 13  1  0  0  0  0
  8 14  1  0  0  0  0
  9 15  2  0  0  0  0
 10 16  1  0  0  0  0
 13 17  2  0  0  0  0
 13 18  1  0  0  0  0
 16 19  2  0  0  0  0
 16 20  1  0  0  0  0
 18 21  1  0  0  0  0
 19 22  1  0  0  0  0
 20 23  2  0  0  0  0
 21 24  2  0  0  0  0
 21 25  1  0  0  0  0
 22 26  2  0  0  0  0
 24 27  1  0  0  0  0
 25 28  2  0  0  0  0
 27 29  2  0  0  0  0
 27 30  1  0  0  0  0
 29 31  1  0  0  0  0
 30 32  1  0  0  0  0
 30 33  1  0  0  0  0
 30 34  1  0  0  0  0
 31 35  3  0  0  0  0
 11 15  1  0  0  0  0
 23 26  1  0  0  0  0
 28 29  1  0  0  0  0
M  END
>  <MolRegNo>
1149152

>  <m>
=

>  <Value>
2000

>  <Unit>
nM

>  <Type>
Ki

>  <pValue>
5.7

>  <Ligand Efficiency>
0.22

>  <Binding Efficiency>
11.34

>  <Surface Efficiency>
5.31

>  <Assay Index>
594732

>  <Assay Category>


>  <Assay Organism>


>  <Target ID>
56

>  <Target Name>
Androgen Receptor

>  <Target Organism>
Homo sapiens

>  <Target Description>
Target is a single protein chain

>  <Sequence Accession>
P10275

>  <Reference>
J Med Chem 54 (11), 3973-3976 (2011)

>  <Pubmed ID>
21506597

>  <DOI>
10.1021/jm2000097

$$$$
1149153
Actelion Java MolfileCreator 1.0

 34 36  0  0  0  0  0  0  0  0999 V2000
    0.0000   -0.0000   -0.0000 S   0  0  0  0  0  0  0  0  0  0  0  0
   -0.6351   -1.0425   -0.0000 O   0  0  0  0  0  0  0  0  0  0  0  0
    0.6231   -1.1743   -0.0000 O   0  0  0  0  0  0  0  0  0  0  0  0
    1.2941    0.7669   -0.0000 C   0  0  0  0  0  0  0  0  0  0  0  0
   -1.3181    0.7669   -0.0000 C   0  0  0  0  0  0  0  0  0  0  0  0
    2.5882    0.0240   -0.0000 C   0  0  0  0  0  0  0  0  0  0  0  0
    1.2701    2.2886   -0.0000 C   0  0  0  0  0  0  0  0  0  0  0  0
   -2.6361    0.0240   -0.0000 C   0  0  0  0  0  0  0  0  0  0  0  0
    2.5762   -1.4738   -0.0000 C   0  0  0  0  0  0  0  0  0  0  0  0
    3.8823    0.7908   -0.0000 C   0  0  0  0  0  0  0  0  0  0  0  0
    2.5642    3.0675   -0.0000 C   0  0  0  0  0  0  0  0  0  0  0  0
   -1.9052   -1.2701   -0.0000 O   0  0  0  0  0  0  0  0  0  0  0  0
   -3.9542    0.7908   -0.0000 C   0  0  0  0  0  0  0  0  0  0  0  0
   -3.4150   -1.2701   -0.0000 C   0  0  0  0  0  0  0  0  0  0  0  0
    1.2701   -2.2168   -0.0000 C   0  0  0  0  0  0  0  0  0  0  0  0
    3.8703   -2.2048   -0.0000 C   0  0  0  0  0  0  0  0  0  0  0  0
    3.8703    2.3126   -0.0000 C   0  0  0  0  0  0  0  0  0  0  0  0
   -3.9662    2.3126   -0.0000 O   0  0  0  0  0  0  0  0  0  0  0  0
   -5.2723    0.0479   -0.0000 N   0  0  0  0  0  0  0  0  0  0  0  0
    1.2582   -3.7146   -0.0000 C   0  0  0  0  0  0  0  0  0  0  0  0
    3.8583   -3.7146   -0.0000 C   0  0  0  0  0  0  0  0  0  0  0  0
   -6.5903    0.8148   -0.0000 C   0  0  0  0  0  0  0  0  0  0  0  0
    2.5523   -4.4575   -0.0000 C   0  0  0  0  0  0  0  0  0  0  0  0
   -7.9204    0.0719   -0.0000 C   0  0  0  0  0  0  0  0  0  0  0  0
   -6.6023    2.3486   -0.0000 C   0  0  0  0  0  0  0  0  0  0  0  0
   -9.2385    0.8388   -0.0000 C   0  0  0  0  0  0  0  0  0  0  0  0
   -7.9204    3.1154   -0.0000 C   0  0  0  0  0  0  0  0  0  0  0  0
   -9.2504    2.3725   -0.0000 C   0  0  0  0  0  0  0  0  0  0  0  0
  -10.5565    0.0959   -0.0000 C   0  0  0  0  0  0  0  0  0  0  0  0
  -10.5805    3.1394   -0.0000 C   0  0  0  0  0  0  0  0  0  0  0  0
  -11.8746    0.8627   -0.0000 F   0  0  0  0  0  0  0  0  0  0  0  0
  -10.5685   -1.4019   -0.0000 F   0  0  0  0  0  0  0  0  0  0  0  0
  -11.8866   -0.6351   -0.0000 F   0  0  0  0  0  0  0  0  0  0  0  0
  -11.8986    3.9063   -0.0000 N   0  0  0  0  0  0  0  0  0  0  0  0
  1  2  2  0  0  0  0
  1  3  2  0  0  0  0
  1  4  1  0  0  0  0
  1  5  1  0  0  0  0
  4  6  2  0  0  0  0
  4  7  1  0  0  0  0
  5  8  1  0  0  0  0
  6  9  1  0  0  0  0
  6 10  1  0  0  0  0
  7 11  2  0  0  0  0
  8 12  1  6  0  0  0
  8 13  1  0  0  0  0
  8 14  1  0  0  0  0
  9 15  2  0  0  0  0
  9 16  1  0  0  0  0
 10 17  2  0  0  0  0
 13 18  2  0  0  0  0
 13 19  1  0  0  0  0
 15 20  1  0  0  0  0
 16 21  2  0  0  0  0
 19 22  1  0  0  0  0
 20 23  2  0  0  0  0
 22 24  2  0  0  0  0
 22 25  1  0  0  0  0
 24 26  1  0  0  0  0
 25 27  2  0  0  0  0
 26 28  2  0  0  0  0
 26 29  1  0  0  0  0
 28 30  1  0  0  0  0
 29 31  1  0  0  0  0
 29 32  1  0  0  0  0
 29 33  1  0  0  0  0
 30 34  3  0  0  0  0
 11 17  1  0  0  0  0
 21 23  1  0  0  0  0
 27 28  1  0  0  0  0
M  END
>  <MolRegNo>
1149153

>  <m>
=

>  <Value>
2000

>  <Unit>
nM

>  <Type>
Ki

>  <pValue>
5.7

>  <Ligand Efficiency>
0.23

>  <Binding Efficiency>
11.67

>  <Surface Efficiency>
5.31

>  <Assay Index>
594732

>  <Assay Category>


>  <Assay Organism>


>  <Target ID>
56

>  <Target Name>
Androgen Receptor

>  <Target Organism>
Homo sapiens

>  <Target Description>
Target is a single protein chain

>  <Sequence Accession>
P10275

>  <Reference>
J Med Chem 54 (11), 3973-3976 (2011)

>  <Pubmed ID>
21506597

>  <DOI>
10.1021/jm2000097

$$$$
1162082
Actelion Java MolfileCreator 1.0

 25 27  0  0  0  0  0  0  0  0999 V2000
    0.0000   -0.0000   -0.0000 S   0  0  0  0  0  0  0  0  0  0  0  0
   -0.1667   -1.4880   -0.0000 C   0  0  0  0  0  0  0  0  0  0  0  0
    1.4523    0.3333   -0.0000 C   0  0  0  0  0  0  0  0  0  0  0  0
    1.2023   -2.0713   -0.0000 N   0  0  0  0  0  0  0  0  0  0  0  0
   -1.4761   -2.2260   -0.0000 N   0  0  0  0  0  0  0  0  0  0  0  0
    2.1903   -0.9523   -0.0000 C   0  0  0  0  0  0  0  0  0  0  0  0
   -2.7974   -1.4642   -0.0000 C   0  0  0  0  0  0  0  0  0  0  0  0
   -2.8093    0.0476   -0.0000 O   0  0  0  0  0  0  0  0  0  0  0  0
   -4.1069   -2.2022   -0.0000 C   0  0  0  0  0  0  0  0  0  0  0  0
   -4.1188   -3.6902   -0.0000 C   0  0  0  0  0  0  0  0  0  0  0  0
   -4.5116   -0.7380   -0.0000 C   0  0  0  0  0  0  0  0  0  0  0  0
   -5.5711   -2.5713   -0.0000 C   0  0  0  0  0  0  0  0  0  0  0  0
   -5.4282   -4.4283   -0.0000 C   0  0  0  0  0  0  0  0  0  0  0  0
   -2.8212   -4.4283   -0.0000 C   0  0  0  0  0  0  0  0  0  0  0  0
   -5.4401   -5.9282   -0.0000 C   0  0  0  0  0  0  0  0  0  0  0  0
   -6.7376   -3.6664   -0.0000 C   0  0  0  0  0  0  0  0  0  0  0  0
   -2.8331   -5.9163   -0.0000 C   0  0  0  0  0  0  0  0  0  0  0  0
   -1.5475   -3.6545   -0.0000 C   0  0  0  0  0  0  0  0  0  0  0  0
   -6.7615   -6.6662   -0.0000 C   0  0  0  0  0  0  0  0  0  0  0  0
   -8.0471   -4.4045   -0.0000 C   0  0  0  0  0  0  0  0  0  0  0  0
   -1.5475   -6.6543   -0.0000 C   0  0  0  0  0  0  0  0  0  0  0  0
   -0.2619   -4.3807   -0.0000 C   0  0  0  0  0  0  0  0  0  0  0  0
   -8.0709   -5.9044   -0.0000 C   0  0  0  0  0  0  0  0  0  0  0  0
   -0.2619   -5.8925   -0.0000 C   0  0  0  0  0  0  0  0  0  0  0  0
   -9.3803   -6.6424   -0.0000 O   0  0  0  0  0  0  0  0  0  0  0  0
  1  2  1  0  0  0  0
  1  3  1  0  0  0  0
  2  4  2  0  0  0  0
  2  5  1  0  0  0  0
  3  6  2  0  0  0  0
  5  7  1  0  0  0  0
  7  8  2  0  0  0  0
  7  9  1  0  0  0  0
  9 10  1  0  0  0  0
  9 11  1  0  0  0  0
  9 12  1  0  0  0  0
 10 13  1  1  0  0  0
 10 14  1  0  0  0  0
 13 15  2  0  0  0  0
 13 16  1  0  0  0  0
 14 17  2  0  0  0  0
 14 18  1  0  0  0  0
 15 19  1  0  0  0  0
 16 20  2  0  0  0  0
 17 21  1  0  0  0  0
 18 22  2  0  0  0  0
 19 23  2  0  0  0  0
 21 24  2  0  0  0  0
 23 25  1  0  0  0  0
  4  6  1  0  0  0  0
 20 23  1  0  0  0  0
 22 24  1  0  0  0  0
M  END
>  <MolRegNo>
1162082

>  <m>
=

>  <Value>
1058

>  <Unit>
nM

>  <Type>
Ki

>  <pValue>
5.98

>  <Ligand Efficiency>
0.33

>  <Binding Efficiency>
16.95

>  <Surface Efficiency>
9.6

>  <Assay Index>
597436

>  <Assay Category>


>  <Assay Organism>


>  <Target ID>
56

>  <Target Name>
Androgen Receptor

>  <Target Organism>
Homo sapiens

>  <Target Description>
Target is a single protein chain

>  <Sequence Accession>
P10275

>  <Reference>
J Med Chem 53 (23), 8241-8251 (2010)

>  <Pubmed ID>
21073190

>  <DOI>
10.1021/jm100957a

$$$$
1162078
Actelion Java MolfileCreator 1.0

 26 28  0  0  0  0  0  0  0  0999 V2000
    0.0000   -0.0000   -0.0000 S   0  0  0  0  0  0  0  0  0  0  0  0
   -0.1667   -1.4882   -0.0000 C   0  0  0  0  0  0  0  0  0  0  0  0
    1.4525    0.3334   -0.0000 C   0  0  0  0  0  0  0  0  0  0  0  0
    1.2025   -2.0716   -0.0000 N   0  0  0  0  0  0  0  0  0  0  0  0
   -1.4763   -2.2263   -0.0000 N   0  0  0  0  0  0  0  0  0  0  0  0
    2.1906   -0.9524   -0.0000 C   0  0  0  0  0  0  0  0  0  0  0  0
   -2.7859   -1.4644   -0.0000 C   0  0  0  0  0  0  0  0  0  0  0  0
   -2.7978    0.0476   -0.0000 O   0  0  0  0  0  0  0  0  0  0  0  0
   -4.0955   -2.2025   -0.0000 C   0  0  0  0  0  0  0  0  0  0  0  0
   -4.1074   -3.6907   -0.0000 C   0  0  0  0  0  0  0  0  0  0  0  0
   -4.5003   -0.7381   -0.0000 C   0  0  0  0  0  0  0  0  0  0  0  0
   -5.5599   -2.5716   -0.0000 C   0  0  0  0  0  0  0  0  0  0  0  0
   -5.4171   -4.4289   -0.0000 C   0  0  0  0  0  0  0  0  0  0  0  0
   -2.8097   -4.4289   -0.0000 C   0  0  0  0  0  0  0  0  0  0  0  0
   -6.7267   -3.6669   -0.0000 C   0  0  0  0  0  0  0  0  0  0  0  0
   -5.4290   -5.9290   -0.0000 C   0  0  0  0  0  0  0  0  0  0  0  0
   -2.8216   -5.9171   -0.0000 C   0  0  0  0  0  0  0  0  0  0  0  0
   -1.5358   -3.6550   -0.0000 C   0  0  0  0  0  0  0  0  0  0  0  0
   -8.0363   -4.4051   -0.0000 C   0  0  0  0  0  0  0  0  0  0  0  0
   -6.7505   -6.6671   -0.0000 C   0  0  0  0  0  0  0  0  0  0  0  0
   -1.5358   -6.6552   -0.0000 C   0  0  0  0  0  0  0  0  0  0  0  0
   -0.2500   -4.3813   -0.0000 C   0  0  0  0  0  0  0  0  0  0  0  0
   -9.3459   -3.6431   -0.0000 F   0  0  0  0  0  0  0  0  0  0  0  0
   -8.0482   -5.9052   -0.0000 C   0  0  0  0  0  0  0  0  0  0  0  0
   -0.2500   -5.8933   -0.0000 C   0  0  0  0  0  0  0  0  0  0  0  0
   -9.3578   -6.6433   -0.0000 O   0  0  0  0  0  0  0  0  0  0  0  0
  1  2  1  0  0  0  0
  1  3  1  0  0  0  0
  2  4  2  0  0  0  0
  2  5  1  0  0  0  0
  3  6  2  0  0  0  0
  5  7  1  0  0  0  0
  7  8  2  0  0  0  0
  7  9  1  0  0  0  0
  9 10  1  0  0  0  0
  9 11  1  0  0  0  0
  9 12  1  0  0  0  0
 10 13  1  1  0  0  0
 10 14  1  0  0  0  0
 13 15  2  0  0  0  0
 13 16  1  0  0  0  0
 14 17  2  0  0  0  0
 14 18  1  0  0  0  0
 15 19  1  0  0  0  0
 16 20  2  0  0  0  0
 17 21  1  0  0  0  0
 18 22  2  0  0  0  0
 19 23  1  0  0  0  0
 19 24  2  0  0  0  0
 21 25  2  0  0  0  0
 24 26  1  0  0  0  0
  4  6  1  0  0  0  0
 20 24  1  0  0  0  0
 22 25  1  0  0  0  0
M  END
>  <MolRegNo>
1162078

>  <m>
=

>  <Value>
1034

>  <Unit>
nM

>  <Type>
Ki

>  <pValue>
5.99

>  <Ligand Efficiency>
0.31

>  <Binding Efficiency>
16.16

>  <Surface Efficiency>
9.62

>  <Assay Index>
597436

>  <Assay Category>


>  <Assay Organism>


>  <Target ID>
56

>  <Target Name>
Androgen Receptor

>  <Target Organism>
Homo sapiens

>  <Target Description>
Target is a single protein chain

>  <Sequence Accession>
P10275

>  <Reference>
J Med Chem 53 (23), 8241-8251 (2010)

>  <Pubmed ID>
21073190

>  <DOI>
10.1021/jm100957a

$$$$
1162076
Actelion Java MolfileCreator 1.0

 26 28  0  0  0  0  0  0  0  0999 V2000
    0.0000   -0.0000   -0.0000 Br  0  0  0  0  0  0  0  0  0  0  0  0
    1.2954   -0.7368   -0.0000 C   0  0  0  0  0  0  0  0  0  0  0  0
    1.2835   -2.2342   -0.0000 C   0  0  0  0  0  0  0  0  0  0  0  0
    2.5789    0.0238   -0.0000 C   0  0  0  0  0  0  0  0  0  0  0  0
   -0.0357   -2.9711   -0.0000 O   0  0  0  0  0  0  0  0  0  0  0  0
    2.5789   -2.9711   -0.0000 C   0  0  0  0  0  0  0  0  0  0  0  0
    3.8743   -0.7131   -0.0000 C   0  0  0  0  0  0  0  0  0  0  0  0
    3.8743   -2.2105   -0.0000 C   0  0  0  0  0  0  0  0  0  0  0  0
    5.1578    0.0594   -0.0000 C   0  0  0  0  0  0  0  0  0  0  0  0
    6.4532   -0.6774   -0.0000 C   0  0  0  0  0  0  0  0  0  0  0  0
    5.1459    1.5806   -0.0000 C   0  0  0  0  0  0  0  0  0  0  0  0
    6.4413   -2.1629   -0.0000 C   0  0  0  0  0  0  0  0  0  0  0  0
    7.7248    0.0951   -0.0000 C   0  0  0  0  0  0  0  0  0  0  0  0
    6.4294    2.3531   -0.0000 C   0  0  0  0  0  0  0  0  0  0  0  0
    4.7418    3.0543   -0.0000 C   0  0  0  0  0  0  0  0  0  0  0  0
    3.6722    1.2122   -0.0000 C   0  0  0  0  0  0  0  0  0  0  0  0
    7.7367   -2.8998   -0.0000 C   0  0  0  0  0  0  0  0  0  0  0  0
    9.0202   -0.6299   -0.0000 C   0  0  0  0  0  0  0  0  0  0  0  0
    6.4175    3.8743   -0.0000 O   0  0  0  0  0  0  0  0  0  0  0  0
    7.7248    1.6163   -0.0000 N   0  0  0  0  0  0  0  0  0  0  0  0
    9.0320   -2.1273   -0.0000 C   0  0  0  0  0  0  0  0  0  0  0  0
    9.0083    2.3887   -0.0000 C   0  0  0  0  0  0  0  0  0  0  0  0
    9.1509    3.8980   -0.0000 S   0  0  0  0  0  0  0  0  0  0  0  0
   10.3750    1.7945   -0.0000 N   0  0  0  0  0  0  0  0  0  0  0  0
   10.6127    4.2308   -0.0000 C   0  0  0  0  0  0  0  0  0  0  0  0
   11.3614    2.9235   -0.0000 C   0  0  0  0  0  0  0  0  0  0  0  0
  1  2  1  0  0  0  0
  2  3  2  0  0  0  0
  2  4  1  0  0  0  0
  3  5  1  0  0  0  0
  3  6  1  0  0  0  0
  4  7  2  0  0  0  0
  6  8  2  0  0  0  0
  9  7  1  1  0  0  0
  9 10  1  0  0  0  0
  9 11  1  0  0  0  0
 10 12  2  0  0  0  0
 10 13  1  0  0  0  0
 11 14  1  0  0  0  0
 11 15  1  0  0  0  0
 11 16  1  0  0  0  0
 12 17  1  0  0  0  0
 13 18  2  0  0  0  0
 14 19  2  0  0  0  0
 14 20  1  0  0  0  0
 17 21  2  0  0  0  0
 20 22  1  0  0  0  0
 22 23  1  0  0  0  0
 22 24  2  0  0  0  0
 23 25  1  0  0  0  0
 24 26  1  0  0  0  0
  7  8  1  0  0  0  0
 18 21  1  0  0  0  0
 25 26  2  0  0  0  0
M  END
>  <MolRegNo>
1162076

>  <m>
=

>  <Value>
370

>  <Unit>
nM

>  <Type>
Ki

>  <pValue>
6.43

>  <Ligand Efficiency>
0.34

>  <Binding Efficiency>
14.91

>  <Surface Efficiency>
10.34

>  <Assay Index>
597436

>  <Assay Category>


>  <Assay Organism>


>  <Target ID>
56

>  <Target Name>
Androgen Receptor

>  <Target Organism>
Homo sapiens

>  <Target Description>
Target is a single protein chain

>  <Sequence Accession>
P10275

>  <Reference>
J Med Chem 53 (23), 8241-8251 (2010)

>  <Pubmed ID>
21073190

>  <DOI>
10.1021/jm100957a

$$$$
1162051
Actelion Java MolfileCreator 1.0

 26 28  0  0  0  0  0  0  0  0999 V2000
    0.0000   -0.0000   -0.0000 S   0  0  0  0  0  0  0  0  0  0  0  0
   -0.1667   -1.4882   -0.0000 C   0  0  0  0  0  0  0  0  0  0  0  0
    1.4525    0.3334   -0.0000 C   0  0  0  0  0  0  0  0  0  0  0  0
    1.2025   -2.0716   -0.0000 N   0  0  0  0  0  0  0  0  0  0  0  0
   -1.4763   -2.2264   -0.0000 N   0  0  0  0  0  0  0  0  0  0  0  0
    2.1906   -0.9525   -0.0000 N   0  0  0  0  0  0  0  0  0  0  0  0
   -2.7978   -1.4644   -0.0000 C   0  0  0  0  0  0  0  0  0  0  0  0
   -2.8097    0.0476   -0.0000 O   0  0  0  0  0  0  0  0  0  0  0  0
   -4.1074   -2.2025   -0.0000 C   0  0  0  0  0  0  0  0  0  0  0  0
   -4.1194   -3.6908   -0.0000 C   0  0  0  0  0  0  0  0  0  0  0  0
   -4.5122   -0.7382   -0.0000 C   0  0  0  0  0  0  0  0  0  0  0  0
   -5.5718   -2.5716   -0.0000 C   0  0  0  0  0  0  0  0  0  0  0  0
   -5.4290   -4.4289   -0.0000 C   0  0  0  0  0  0  0  0  0  0  0  0
   -2.8335   -4.4289   -0.0000 C   0  0  0  0  0  0  0  0  0  0  0  0
   -6.7386   -3.6669   -0.0000 C   0  0  0  0  0  0  0  0  0  0  0  0
   -5.4409   -5.9290   -0.0000 C   0  0  0  0  0  0  0  0  0  0  0  0
   -2.8455   -5.9171   -0.0000 C   0  0  0  0  0  0  0  0  0  0  0  0
   -1.5596   -3.6550   -0.0000 C   0  0  0  0  0  0  0  0  0  0  0  0
   -8.0482   -4.4051   -0.0000 C   0  0  0  0  0  0  0  0  0  0  0  0
   -6.7505   -6.6672   -0.0000 C   0  0  0  0  0  0  0  0  0  0  0  0
   -1.5596   -6.6553   -0.0000 C   0  0  0  0  0  0  0  0  0  0  0  0
   -0.2738   -4.3813   -0.0000 C   0  0  0  0  0  0  0  0  0  0  0  0
   -9.3578   -3.6431   -0.0000 F   0  0  0  0  0  0  0  0  0  0  0  0
   -8.0601   -5.9052   -0.0000 C   0  0  0  0  0  0  0  0  0  0  0  0
   -0.2738   -5.8933   -0.0000 C   0  0  0  0  0  0  0  0  0  0  0  0
   -9.3697   -6.6434   -0.0000 O   0  0  0  0  0  0  0  0  0  0  0  0
  1  2  1  0  0  0  0
  1  3  1  0  0  0  0
  2  4  2  0  0  0  0
  2  5  1  0  0  0  0
  3  6  2  0  0  0  0
  5  7  1  0  0  0  0
  7  8  2  0  0  0  0
  7  9  1  0  0  0  0
  9 10  1  0  0  0  0
  9 11  1  0  0  0  0
  9 12  1  0  0  0  0
 10 13  1  1  0  0  0
 10 14  1  0  0  0  0
 13 15  2  0  0  0  0
 13 16  1  0  0  0  0
 14 17  2  0  0  0  0
 14 18  1  0  0  0  0
 15 19  1  0  0  0  0
 16 20  2  0  0  0  0
 17 21  1  0  0  0  0
 18 22  2  0  0  0  0
 19 23  1  0  0  0  0
 19 24  2  0  0  0  0
 21 25  2  0  0  0  0
 24 26  1  0  0  0  0
  4  6  1  0  0  0  0
 20 24  1  0  0  0  0
 22 25  1  0  0  0  0
M  END
>  <MolRegNo>
1162051

>  <m>
=

>  <Value>
993

>  <Unit>
nM

>  <Type>
Ki

>  <pValue>
6

>  <Ligand Efficiency>
0.32

>  <Binding Efficiency>
16.16

>  <Surface Efficiency>
7.99

>  <Assay Index>
597436

>  <Assay Category>


>  <Assay Organism>


>  <Target ID>
56

>  <Target Name>
Androgen Receptor

>  <Target Organism>
Homo sapiens

>  <Target Description>
Target is a single protein chain

>  <Sequence Accession>
P10275

>  <Reference>
J Med Chem 53 (23), 8241-8251 (2010)

>  <Pubmed ID>
21073190

>  <DOI>
10.1021/jm100957a

$$$$
1162054
Actelion Java MolfileCreator 1.0

 26 29  0  0  0  0  0  0  0  0999 V2000
    0.0000   -0.0000   -0.0000 S   0  0  0  0  0  0  0  0  0  0  0  0
   -0.1670   -1.4910   -0.0000 C   0  0  0  0  0  0  0  0  0  0  0  0
    1.4552    0.3340   -0.0000 C   0  0  0  0  0  0  0  0  0  0  0  0
    1.1928   -2.0755   -0.0000 N   0  0  0  0  0  0  0  0  0  0  0  0
   -1.4791   -2.2306   -0.0000 N   0  0  0  0  0  0  0  0  0  0  0  0
    2.1948   -0.9543   -0.0000 C   0  0  0  0  0  0  0  0  0  0  0  0
   -2.7912   -1.4672   -0.0000 C   0  0  0  0  0  0  0  0  0  0  0  0
   -2.8031    0.0477   -0.0000 O   0  0  0  0  0  0  0  0  0  0  0  0
   -4.1033   -2.2067   -0.0000 C   0  0  0  0  0  0  0  0  0  0  0  0
   -4.1153   -3.6978   -0.0000 C   0  0  0  0  0  0  0  0  0  0  0  0
   -4.5089   -0.7396   -0.0000 C   0  0  0  0  0  0  0  0  0  0  0  0
   -5.5705   -2.5765   -0.0000 C   0  0  0  0  0  0  0  0  0  0  0  0
   -5.4274   -4.4373   -0.0000 C   0  0  0  0  0  0  0  0  0  0  0  0
   -2.8270   -4.4373   -0.0000 C   0  0  0  0  0  0  0  0  0  0  0  0
   -5.4393   -5.9403   -0.0000 C   0  0  0  0  0  0  0  0  0  0  0  0
   -6.7395   -3.6858   -0.0000 C   0  0  0  0  0  0  0  0  0  0  0  0
   -2.8389   -5.9403   -0.0000 C   0  0  0  0  0  0  0  0  0  0  0  0
   -1.5507   -3.6620   -0.0000 C   0  0  0  0  0  0  0  0  0  0  0  0
   -4.1510   -6.6798   -0.0000 O   0  0  0  0  0  0  0  0  0  0  0  0
   -6.7514   -6.6798   -0.0000 C   0  0  0  0  0  0  0  0  0  0  0  0
   -8.0516   -4.4254   -0.0000 C   0  0  0  0  0  0  0  0  0  0  0  0
   -1.5626   -6.6560   -0.0000 C   0  0  0  0  0  0  0  0  0  0  0  0
   -0.2624   -4.3896   -0.0000 C   0  0  0  0  0  0  0  0  0  0  0  0
   -8.0635   -5.9164   -0.0000 C   0  0  0  0  0  0  0  0  0  0  0  0
   -0.2744   -5.8926   -0.0000 C   0  0  0  0  0  0  0  0  0  0  0  0
   -9.3756   -6.6560   -0.0000 O   0  0  0  0  0  0  0  0  0  0  0  0
  1  2  1  0  0  0  0
  1  3  1  0  0  0  0
  2  4  2  0  0  0  0
  2  5  1  0  0  0  0
  3  6  2  0  0  0  0
  5  7  1  0  0  0  0
  7  8  2  0  0  0  0
  7  9  1  0  0  0  0
 10  9  1  1  0  0  0
  9 11  1  0  0  0  0
  9 12  1  0  0  0  0
 10 13  1  0  0  0  0
 10 14  1  0  0  0  0
 13 15  2  0  0  0  0
 13 16  1  0  0  0  0
 14 17  2  0  0  0  0
 14 18  1  0  0  0  0
 15 19  1  0  0  0  0
 15 20  1  0  0  0  0
 16 21  2  0  0  0  0
 17 22  1  0  0  0  0
 18 23  2  0  0  0  0
 20 24  2  0  0  0  0
 22 25  2  0  0  0  0
 24 26  1  0  0  0  0
  4  6  1  0  0  0  0
 17 19  1  0  0  0  0
 21 24  1  0  0  0  0
 23 25  1  0  0  0  0
M  END
>  <MolRegNo>
1162054

>  <m>
=

>  <Value>
2341

>  <Unit>
nM

>  <Type>
Ki

>  <pValue>
5.63

>  <Ligand Efficiency>
0.3

>  <Binding Efficiency>
15.37

>  <Surface Efficiency>
7.88

>  <Assay Index>
597436

>  <Assay Category>


>  <Assay Organism>


>  <Target ID>
56

>  <Target Name>
Androgen Receptor

>  <Target Organism>
Homo sapiens

>  <Target Description>
Target is a single protein chain

>  <Sequence Accession>
P10275

>  <Reference>
J Med Chem 53 (23), 8241-8251 (2010)

>  <Pubmed ID>
21073190

>  <DOI>
10.1021/jm100957a

$$$$
1162055
Actelion Java MolfileCreator 1.0

 26 29  0  0  0  0  0  0  0  0999 V2000
    0.0000   -0.0000   -0.0000 S   0  0  0  0  0  0  0  0  0  0  0  0
   -0.1670   -1.4910   -0.0000 C   0  0  0  0  0  0  0  0  0  0  0  0
    1.4552    0.3340   -0.0000 C   0  0  0  0  0  0  0  0  0  0  0  0
    1.1928   -2.0755   -0.0000 N   0  0  0  0  0  0  0  0  0  0  0  0
   -1.4791   -2.2306   -0.0000 N   0  0  0  0  0  0  0  0  0  0  0  0
    2.1948   -0.9543   -0.0000 N   0  0  0  0  0  0  0  0  0  0  0  0
   -2.7912   -1.4672   -0.0000 C   0  0  0  0  0  0  0  0  0  0  0  0
   -2.8031    0.0477   -0.0000 O   0  0  0  0  0  0  0  0  0  0  0  0
   -4.1033   -2.2067   -0.0000 C   0  0  0  0  0  0  0  0  0  0  0  0
   -4.1153   -3.6978   -0.0000 C   0  0  0  0  0  0  0  0  0  0  0  0
   -4.5089   -0.7396   -0.0000 C   0  0  0  0  0  0  0  0  0  0  0  0
   -5.5705   -2.5765   -0.0000 C   0  0  0  0  0  0  0  0  0  0  0  0
   -5.4274   -4.4373   -0.0000 C   0  0  0  0  0  0  0  0  0  0  0  0
   -2.8270   -4.4373   -0.0000 C   0  0  0  0  0  0  0  0  0  0  0  0
   -5.4393   -5.9403   -0.0000 C   0  0  0  0  0  0  0  0  0  0  0  0
   -6.7395   -3.6858   -0.0000 C   0  0  0  0  0  0  0  0  0  0  0  0
   -2.8389   -5.9403   -0.0000 C   0  0  0  0  0  0  0  0  0  0  0  0
   -1.5507   -3.6620   -0.0000 C   0  0  0  0  0  0  0  0  0  0  0  0
   -4.1510   -6.6798   -0.0000 O   0  0  0  0  0  0  0  0  0  0  0  0
   -6.7514   -6.6798   -0.0000 C   0  0  0  0  0  0  0  0  0  0  0  0
   -8.0516   -4.4254   -0.0000 C   0  0  0  0  0  0  0  0  0  0  0  0
   -1.5626   -6.6560   -0.0000 C   0  0  0  0  0  0  0  0  0  0  0  0
   -0.2624   -4.3896   -0.0000 C   0  0  0  0  0  0  0  0  0  0  0  0
   -8.0635   -5.9164   -0.0000 C   0  0  0  0  0  0  0  0  0  0  0  0
   -0.2744   -5.8926   -0.0000 C   0  0  0  0  0  0  0  0  0  0  0  0
   -9.3756   -6.6560   -0.0000 O   0  0  0  0  0  0  0  0  0  0  0  0
  1  2  1  0  0  0  0
  1  3  1  0  0  0  0
  2  4  2  0  0  0  0
  2  5  1  0  0  0  0
  3  6  2  0  0  0  0
  5  7  1  0  0  0  0
  7  8  2  0  0  0  0
  7  9  1  0  0  0  0
 10  9  1  1  0  0  0
  9 11  1  0  0  0  0
  9 12  1  0  0  0  0
 10 13  1  0  0  0  0
 10 14  1  0  0  0  0
 13 15  2  0  0  0  0
 13 16  1  0  0  0  0
 14 17  2  0  0  0  0
 14 18  1  0  0  0  0
 15 19  1  0  0  0  0
 15 20  1  0  0  0  0
 16 21  2  0  0  0  0
 17 22  1  0  0  0  0
 18 23  2  0  0  0  0
 20 24  2  0  0  0  0
 22 25  2  0  0  0  0
 24 26  1  0  0  0  0
  4  6  1  0  0  0  0
 17 19  1  0  0  0  0
 21 24  1  0  0  0  0
 23 25  1  0  0  0  0
M  END
>  <MolRegNo>
1162055

>  <m>
=

>  <Value>
696

>  <Unit>
nM

>  <Type>
Ki

>  <pValue>
6.16

>  <Ligand Efficiency>
0.32

>  <Binding Efficiency>
16.76

>  <Surface Efficiency>
7.3

>  <Assay Index>
597436

>  <Assay Category>


>  <Assay Organism>


>  <Target ID>
56

>  <Target Name>
Androgen Receptor

>  <Target Organism>
Homo sapiens

>  <Target Description>
Target is a single protein chain

>  <Sequence Accession>
P10275

>  <Reference>
J Med Chem 53 (23), 8241-8251 (2010)

>  <Pubmed ID>
21073190

>  <DOI>
10.1021/jm100957a

$$$$
1442755
Actelion Java MolfileCreator 1.0

 36 42  0  0  0  0  0  0  0  0999 V2000
    0.0000   -0.0000   -0.0000 F   0  0  0  0  0  0  0  0  0  0  0  0
    1.0905   -1.0186   -0.0000 C   0  0  0  0  0  0  0  0  0  0  0  0
    2.5285   -0.5752   -0.0000 C   0  0  0  0  0  0  0  0  0  0  0  0
    0.7190   -2.4926   -0.0000 C   0  0  0  0  0  0  0  0  0  0  0  0
    3.6070   -1.6058   -0.0000 C   0  0  0  0  0  0  0  0  0  0  0  0
    1.8095   -3.5111   -0.0000 C   0  0  0  0  0  0  0  0  0  0  0  0
    4.9611   -0.9587   -0.0000 O   0  0  0  0  0  0  0  0  0  0  0  0
    3.2355   -3.0678   -0.0000 C   0  0  0  0  0  0  0  0  0  0  0  0
    6.3033   -1.6178   -0.0000 C   0  0  0  0  0  0  0  0  0  0  0  0
    4.1463   -4.2421   -0.0000 C   0  0  0  0  0  0  0  0  0  0  0  0
    6.6148   -3.0797   -0.0000 C   0  0  0  0  0  0  0  0  0  0  0  0
    5.6562   -4.2301   -0.0000 C   0  0  0  0  0  0  0  0  0  0  0  0
    3.4752   -5.5843   -0.0000 C   0  0  0  0  0  0  0  0  0  0  0  0
    8.0888   -3.3074   -0.0000 C   0  0  0  0  0  0  0  0  0  0  0  0
    6.1834   -5.6322   -0.0000 C   0  0  0  0  0  0  0  0  0  0  0  0
    4.2301   -6.8785   -0.0000 C   0  0  0  0  0  0  0  0  0  0  0  0
    8.6161   -4.7095   -0.0000 C   0  0  0  0  0  0  0  0  0  0  0  0
    7.6694   -5.8599   -0.0000 C   0  0  0  0  0  0  0  0  0  0  0  0
    3.4752   -8.1847   -0.0000 C   0  0  0  0  0  0  0  0  0  0  0  0
    5.7281   -6.8425   -0.0000 C   0  0  0  0  0  0  0  0  0  0  0  0
    4.2182   -9.4789   -0.0000 C   0  0  0  0  0  0  0  0  0  0  0  0
    6.4830   -8.1248   -0.0000 C   0  0  0  0  0  0  0  0  0  0  0  0
    3.7748  -10.9169   -0.0000 N   0  0  0  0  0  0  0  0  0  0  0  0
    5.7281   -9.4549   -0.0000 C   0  0  0  0  0  0  0  0  0  0  0  0
    4.9971  -11.7797   -0.0000 C   0  0  0  0  0  0  0  0  0  0  0  0
    6.2074  -10.8690   -0.0000 N   0  0  0  0  0  0  0  0  0  0  0  0
    5.0091  -13.2776   -0.0000 O   0  0  0  0  0  0  0  0  0  0  0  0
    7.6334  -11.3123   -0.0000 C   0  0  0  0  0  0  0  0  0  0  0  0
    8.8438  -10.3896   -0.0000 C   0  0  0  0  0  0  0  0  0  0  0  0
    8.1128  -12.7264   -0.0000 C   0  0  0  0  0  0  0  0  0  0  0  0
   10.0661  -11.2404   -0.0000 N   0  0  0  0  0  0  0  0  0  0  0  0
    9.6227  -12.6904   -0.0000 C   0  0  0  0  0  0  0  0  0  0  0  0
   11.5161  -10.8929   -0.0000 C   0  0  0  0  0  0  0  0  0  0  0  0
   10.6293  -13.7809   -0.0000 C   0  0  0  0  0  0  0  0  0  0  0  0
   12.5347  -11.9954   -0.0000 C   0  0  0  0  0  0  0  0  0  0  0  0
   12.0793  -13.4334   -0.0000 O   0  0  0  0  0  0  0  0  0  0  0  0
  1  2  1  0  0  0  0
  2  3  2  0  0  0  0
  2  4  1  0  0  0  0
  3  5  1  0  0  0  0
  4  6  2  0  0  0  0
  5  7  1  0  0  0  0
  5  8  2  0  0  0  0
  7  9  1  0  0  0  0
  8 10  1  0  0  0  0
  9 11  1  0  0  0  0
 10 12  1  0  0  0  0
 10 13  2  0  0  0  0
 11 14  1  0  0  0  0
 12 15  1  0  0  0  0
 13 16  1  0  0  0  0
 14 17  2  0  0  0  0
 15 18  2  0  0  0  0
 16 19  2  0  0  0  0
 16 20  1  0  0  0  0
 19 21  1  0  0  0  0
 20 22  2  0  0  0  0
 21 23  1  0  0  0  0
 21 24  2  0  0  0  0
 23 25  1  0  0  0  0
 24 26  1  0  0  0  0
 25 27  2  0  0  0  0
 28 26  1  6  0  0  0
 28 29  1  0  0  0  0
 28 30  1  0  0  0  0
 29 31  1  0  0  0  0
 30 32  1  0  0  0  0
 31 33  1  0  0  0  0
 32 34  1  0  0  0  0
 33 35  1  0  0  0  0
 34 36  1  0  0  0  0
  6  8  1  0  0  0  0
 11 12  2  0  0  0  0
 17 18  1  0  0  0  0
 22 24  1  0  0  0  0
 25 26  1  0  0  0  0
 32 31  1  6  0  0  0
 35 36  1  0  0  0  0
M  END
>  <MolRegNo>
1442755

>  <m>
=

>  <Value>
1170

>  <Unit>
nM

>  <Type>
Ki

>  <pValue>
5.93

>  <Ligand Efficiency>
0.23

>  <Binding Efficiency>
12.27

>  <Surface Efficiency>
9.97

>  <Assay Index>
696041

>  <Assay Category>


>  <Assay Organism>
Homo sapiens

>  <Target ID>
56

>  <Target Name>
Androgen Receptor

>  <Target Organism>
Homo sapiens

>  <Target Description>
Target is a single protein chain

>  <Sequence Accession>
P10275

>  <Reference>
J Med Chem 55 (18), 7957-7966 (2012)

>  <Pubmed ID>
22866979

>  <DOI>
10.1021/jm300806c

$$$$
1528799
Actelion Java MolfileCreator 1.0

 37 41  0  0  0  0  0  0  0  0999 V2000
    0.0000   -0.0000   -0.0000 F   0  0  0  0  0  0  0  0  0  0  0  0
    0.4511    1.4365   -0.0000 C   0  0  0  0  0  0  0  0  0  0  0  0
    1.9114    1.7689   -0.0000 F   0  0  0  0  0  0  0  0  0  0  0  0
    1.1753    0.1543   -0.0000 F   0  0  0  0  0  0  0  0  0  0  0  0
   -0.5698    2.5643   -0.0000 C   0  0  0  0  0  0  0  0  0  0  0  0
   -2.0894    2.4100   -0.0000 N   0  0  0  0  0  0  0  0  0  0  0  0
   -0.2731    4.0602   -0.0000 N   0  0  0  0  0  0  0  0  0  0  0  0
   -2.7187    3.8109   -0.0000 N   0  0  0  0  0  0  0  0  0  0  0  0
    1.0091    4.8318   -0.0000 N   0  0  0  0  0  0  0  0  0  0  0  0
   -1.6027    4.8318   -0.0000 C   0  0  0  0  0  0  0  0  0  0  0  0
    0.9972    6.3396   -0.0000 C   0  0  0  0  0  0  0  0  0  0  0  0
   -1.6146    6.3396   -0.0000 C   0  0  0  0  0  0  0  0  0  0  0  0
    2.2794    7.0994   -0.0000 N   0  0  0  0  0  0  0  0  0  0  0  0
   -0.3205    7.0994   -0.0000 C   0  0  0  0  0  0  0  0  0  0  0  0
    3.5616    6.3633   -0.0000 C   0  0  0  0  0  0  0  0  0  0  0  0
    2.2675    8.6190   -0.0000 C   0  0  0  0  0  0  0  0  0  0  0  0
    4.8437    7.1231   -0.0000 C   0  0  0  0  0  0  0  0  0  0  0  0
    3.5497    9.3906   -0.0000 C   0  0  0  0  0  0  0  0  0  0  0  0
    4.8318    8.6427   -0.0000 C   0  0  0  0  0  0  0  0  0  0  0  0
    6.1259    9.4025   -0.0000 C   0  0  0  0  0  0  0  0  0  0  0  0
    7.4080    8.6546   -0.0000 C   0  0  0  0  0  0  0  0  0  0  0  0
    6.1140   10.8984   -0.0000 C   0  0  0  0  0  0  0  0  0  0  0  0
    8.7021    9.4144   -0.0000 C   0  0  0  0  0  0  0  0  0  0  0  0
    7.3962   11.6582   -0.0000 C   0  0  0  0  0  0  0  0  0  0  0  0
    8.6902   10.9340   -0.0000 C   0  0  0  0  0  0  0  0  0  0  0  0
    9.9842   11.6938   -0.0000 O   0  0  0  0  0  0  0  0  0  0  0  0
   11.2664   10.9577   -0.0000 C   0  0  0  0  0  0  0  0  0  0  0  0
   12.5604   11.7175   -0.0000 C   0  0  0  0  0  0  0  0  0  0  0  0
   13.8426   10.9815   -0.0000 N   0  0  0  0  0  0  0  0  0  0  0  0
   13.8188    9.4975   -0.0000 C   0  0  0  0  0  0  0  0  0  0  0  0
   15.1247   11.7531   -0.0000 C   0  0  0  0  0  0  0  0  0  0  0  0
   15.1010    8.7614   -0.0000 C   0  0  0  0  0  0  0  0  0  0  0  0
   16.4188   11.0052   -0.0000 C   0  0  0  0  0  0  0  0  0  0  0  0
   16.3950    9.5212   -0.0000 N   0  0  0  0  0  0  0  0  0  0  0  0
   17.6772    8.7733   -0.0000 C   0  0  0  0  0  0  0  0  0  0  0  0
   17.6534    7.2774   -0.0000 O   0  0  0  0  0  0  0  0  0  0  0  0
   18.9712    9.5331   -0.0000 C   0  0  0  0  0  0  0  0  0  0  0  0
  1  2  1  0  0  0  0
  2  3  1  0  0  0  0
  2  4  1  0  0  0  0
  2  5  1  0  0  0  0
  5  6  2  0  0  0  0
  5  7  1  0  0  0  0
  6  8  1  0  0  0  0
  7  9  1  0  0  0  0
  7 10  1  0  0  0  0
  9 11  2  0  0  0  0
 10 12  1  0  0  0  0
 11 13  1  0  0  0  0
 11 14  1  0  0  0  0
 13 15  1  0  0  0  0
 13 16  1  0  0  0  0
 15 17  1  0  0  0  0
 16 18  1  0  0  0  0
 17 19  1  0  0  0  0
 19 20  1  0  0  0  0
 20 21  2  0  0  0  0
 20 22  1  0  0  0  0
 21 23  1  0  0  0  0
 22 24  2  0  0  0  0
 23 25  2  0  0  0  0
 25 26  1  0  0  0  0
 26 27  1  0  0  0  0
 27 28  1  0  0  0  0
 28 29  1  0  0  0  0
 29 30  1  0  0  0  0
 29 31  1  0  0  0  0
 30 32  1  0  0  0  0
 31 33  1  0  0  0  0
 32 34  1  0  0  0  0
 34 35  1  0  0  0  0
 35 36  2  0  0  0  0
 35 37  1  0  0  0  0
  8 10  2  0  0  0  0
 12 14  1  0  0  0  0
 18 19  1  0  0  0  0
 24 25  1  0  0  0  0
 33 34  1  0  0  0  0
M  END
>  <MolRegNo>
1528799

>  <m>
=

>  <Value>
2200

>  <Unit>
nM

>  <Type>
Ki

>  <pValue>
5.66

>  <Ligand Efficiency>
0.21

>  <Binding Efficiency>
10.89

>  <Surface Efficiency>
7.15

>  <Assay Index>
765178

>  <Assay Category>


>  <Assay Organism>
Homo sapiens

>  <Target ID>
56

>  <Target Name>
Androgen Receptor

>  <Target Organism>
Homo sapiens

>  <Target Description>
Target is a single protein chain

>  <Sequence Accession>
P10275

>  <Reference>
Bioorg Med Chem Lett 23 (7), 1945-1948 (2013)

>  <Pubmed ID>
23466225

>  <DOI>
10.1016/j.bmcl.2013.02.056

$$$$
1581750
Actelion Java MolfileCreator 1.0

 33 37  0  0  0  0  0  0  0  0999 V2000
    0.0000   -0.0000   -0.0000 S   0  0  0  0  0  0  0  0  0  0  0  0
    0.0119   -1.4955   -0.0000 C   0  0  0  0  0  0  0  0  0  0  0  0
    1.4124    0.4866   -0.0000 C   0  0  0  0  0  0  0  0  0  0  0  0
    1.4243   -1.9347   -0.0000 N   0  0  0  0  0  0  0  0  0  0  0  0
   -1.3056   -2.2314   -0.0000 N   0  0  0  0  0  0  0  0  0  0  0  0
    2.2908   -0.7122   -0.0000 N   0  0  0  0  0  0  0  0  0  0  0  0
   -2.6231   -1.4718   -0.0000 C   0  0  0  0  0  0  0  0  0  0  0  0
   -2.6350    0.0475   -0.0000 O   0  0  0  0  0  0  0  0  0  0  0  0
   -3.9406   -2.2077   -0.0000 C   0  0  0  0  0  0  0  0  0  0  0  0
   -3.9406   -3.7032   -0.0000 C   0  0  0  0  0  0  0  0  0  0  0  0
   -5.2581   -1.4481   -0.0000 C   0  0  0  0  0  0  0  0  0  0  0  0
   -5.2581   -4.4391   -0.0000 C   0  0  0  0  0  0  0  0  0  0  0  0
   -2.6468   -4.4391   -0.0000 C   0  0  0  0  0  0  0  0  0  0  0  0
   -6.5756   -3.6676   -0.0000 C   0  0  0  0  0  0  0  0  0  0  0  0
   -5.2700   -5.9228   -0.0000 C   0  0  0  0  0  0  0  0  0  0  0  0
   -2.6587   -5.9228   -0.0000 C   0  0  0  0  0  0  0  0  0  0  0  0
   -1.3650   -3.6676   -0.0000 C   0  0  0  0  0  0  0  0  0  0  0  0
   -7.8812   -4.4035   -0.0000 C   0  0  0  0  0  0  0  0  0  0  0  0
   -6.5756   -6.6705   -0.0000 C   0  0  0  0  0  0  0  0  0  0  0  0
   -1.3650   -6.6587   -0.0000 C   0  0  0  0  0  0  0  0  0  0  0  0
   -0.0712   -4.3916   -0.0000 C   0  0  0  0  0  0  0  0  0  0  0  0
   -7.9049   -5.8990   -0.0000 C   0  0  0  0  0  0  0  0  0  0  0  0
   -9.3174   -3.9169   -0.0000 C   0  0  0  0  0  0  0  0  0  0  0  0
   -0.0712   -5.8872   -0.0000 C   0  0  0  0  0  0  0  0  0  0  0  0
   -9.3411   -6.3382   -0.0000 N   0  0  0  0  0  0  0  0  0  0  0  0
  -10.2194   -5.1157   -0.0000 N   0  0  0  0  0  0  0  0  0  0  0  0
   -9.3649   -7.8337   -0.0000 C   0  0  0  0  0  0  0  0  0  0  0  0
  -10.6823   -8.5459   -0.0000 C   0  0  0  0  0  0  0  0  0  0  0  0
   -8.0830   -8.5696   -0.0000 C   0  0  0  0  0  0  0  0  0  0  0  0
  -10.7061  -10.0414   -0.0000 C   0  0  0  0  0  0  0  0  0  0  0  0
   -8.1067  -10.0533   -0.0000 C   0  0  0  0  0  0  0  0  0  0  0  0
   -9.4242  -10.8010   -0.0000 C   0  0  0  0  0  0  0  0  0  0  0  0
   -9.4479  -12.2966   -0.0000 F   0  0  0  0  0  0  0  0  0  0  0  0
  1  2  1  0  0  0  0
  1  3  1  0  0  0  0
  2  4  2  0  0  0  0
  2  5  1  0  0  0  0
  3  6  2  0  0  0  0
  5  7  1  0  0  0  0
  7  8  2  0  0  0  0
  7  9  1  0  0  0  0
 10  9  1  1  0  0  0
  9 11  1  0  0  0  0
 10 12  1  0  0  0  0
 10 13  1  0  0  0  0
 12 14  2  0  0  0  0
 12 15  1  0  0  0  0
 13 16  2  0  0  0  0
 13 17  1  0  0  0  0
 14 18  1  0  0  0  0
 15 19  2  0  0  0  0
 16 20  1  0  0  0  0
 17 21  2  0  0  0  0
 18 22  2  0  0  0  0
 18 23  1  0  0  0  0
 20 24  2  0  0  0  0
 22 25  1  0  0  0  0
 23 26  2  0  0  0  0
 25 27  1  0  0  0  0
 27 28  2  0  0  0  0
 27 29  1  0  0  0  0
 28 30  1  0  0  0  0
 29 31  2  0  0  0  0
 30 32  2  0  0  0  0
 32 33  1  0  0  0  0
  4  6  1  0  0  0  0
 19 22  1  0  0  0  0
 21 24  1  0  0  0  0
 25 26  1  0  0  0  0
 31 32  1  0  0  0  0
M  END
>  <MolRegNo>
1581750

>  <m>
=

>  <Value>
243

>  <Unit>
nM

>  <Type>
Ki

>  <pValue>
6.61

>  <Ligand Efficiency>
0.27

>  <Binding Efficiency>
14.46

>  <Surface Efficiency>
9.1

>  <Assay Index>
795922

>  <Assay Category>


>  <Assay Organism>
Homo sapiens

>  <Target ID>
56

>  <Target Name>
Androgen Receptor

>  <Target Organism>
Homo sapiens

>  <Target Description>
Target is a single protein chain

>  <Sequence Accession>
P10275

>  <Reference>
Bioorg Med Chem Lett 23 (19), 5442-5447 (2013)

>  <Pubmed ID>
23953070

>  <DOI>
10.1016/j.bmcl.2013.06.089

$$$$
1581762
Actelion Java MolfileCreator 1.0

 31 34  0  0  0  0  0  0  0  0999 V2000
    0.0000   -0.0000   -0.0000 S   0  0  0  0  0  0  0  0  0  0  0  0
    0.0119   -1.4940   -0.0000 C   0  0  0  0  0  0  0  0  0  0  0  0
    1.4110    0.4862   -0.0000 C   0  0  0  0  0  0  0  0  0  0  0  0
    1.4229   -1.9328   -0.0000 N   0  0  0  0  0  0  0  0  0  0  0  0
   -1.3043   -2.2292   -0.0000 N   0  0  0  0  0  0  0  0  0  0  0  0
    2.2885   -0.7115   -0.0000 N   0  0  0  0  0  0  0  0  0  0  0  0
   -2.6205   -1.4703   -0.0000 C   0  0  0  0  0  0  0  0  0  0  0  0
   -2.6324    0.0474   -0.0000 O   0  0  0  0  0  0  0  0  0  0  0  0
   -3.9367   -2.2055   -0.0000 C   0  0  0  0  0  0  0  0  0  0  0  0
   -3.9367   -3.6995   -0.0000 C   0  0  0  0  0  0  0  0  0  0  0  0
   -4.6956   -0.8893   -0.0000 C   0  0  0  0  0  0  0  0  0  0  0  0
   -5.4545   -2.1936   -0.0000 C   0  0  0  0  0  0  0  0  0  0  0  0
   -5.2529   -4.4347   -0.0000 C   0  0  0  0  0  0  0  0  0  0  0  0
   -2.6442   -4.4347   -0.0000 C   0  0  0  0  0  0  0  0  0  0  0  0
   -6.5691   -3.6640   -0.0000 C   0  0  0  0  0  0  0  0  0  0  0  0
   -5.2647   -5.9169   -0.0000 C   0  0  0  0  0  0  0  0  0  0  0  0
   -2.6561   -5.9288   -0.0000 C   0  0  0  0  0  0  0  0  0  0  0  0
   -7.8734   -4.3991   -0.0000 C   0  0  0  0  0  0  0  0  0  0  0  0
   -6.5691   -6.6639   -0.0000 C   0  0  0  0  0  0  0  0  0  0  0  0
   -1.3636   -6.6639   -0.0000 C   0  0  0  0  0  0  0  0  0  0  0  0
   -7.8971   -5.8932   -0.0000 C   0  0  0  0  0  0  0  0  0  0  0  0
   -9.3081   -3.9130   -0.0000 C   0  0  0  0  0  0  0  0  0  0  0  0
   -9.3319   -6.3319   -0.0000 N   0  0  0  0  0  0  0  0  0  0  0  0
  -10.2093   -5.1106   -0.0000 N   0  0  0  0  0  0  0  0  0  0  0  0
   -9.3556   -7.8260   -0.0000 C   0  0  0  0  0  0  0  0  0  0  0  0
  -10.6718   -8.5374   -0.0000 C   0  0  0  0  0  0  0  0  0  0  0  0
   -8.0750   -8.5611   -0.0000 C   0  0  0  0  0  0  0  0  0  0  0  0
  -10.6955  -10.0314   -0.0000 C   0  0  0  0  0  0  0  0  0  0  0  0
   -8.0987  -10.0433   -0.0000 C   0  0  0  0  0  0  0  0  0  0  0  0
   -9.4149  -10.7903   -0.0000 C   0  0  0  0  0  0  0  0  0  0  0  0
   -9.4386  -12.2844   -0.0000 F   0  0  0  0  0  0  0  0  0  0  0  0
  1  2  1  0  0  0  0
  1  3  1  0  0  0  0
  2  4  2  0  0  0  0
  2  5  1  0  0  0  0
  3  6  2  0  0  0  0
  5  7  1  0  0  0  0
  7  8  2  0  0  0  0
  7  9  1  0  0  0  0
  9 10  1  0  0  0  0
  9 11  1  0  0  0  0
  9 12  1  0  0  0  0
 10 13  1  0  0  0  0
 10 14  1  0  0  0  0
 13 15  2  0  0  0  0
 13 16  1  0  0  0  0
 14 17  1  0  0  0  0
 15 18  1  0  0  0  0
 16 19  2  0  0  0  0
 17 20  1  0  0  0  0
 18 21  2  0  0  0  0
 18 22  1  0  0  0  0
 21 23  1  0  0  0  0
 22 24  2  0  0  0  0
 23 25  1  0  0  0  0
 25 26  2  0  0  0  0
 25 27  1  0  0  0  0
 26 28  1  0  0  0  0
 27 29  2  0  0  0  0
 28 30  2  0  0  0  0
 30 31  1  0  0  0  0
  4  6  1  0  0  0  0
 19 21  1  0  0  0  0
 23 24  1  0  0  0  0
 29 30  1  0  0  0  0
M  END
>  <MolRegNo>
1581762

>  <m>
=

>  <Value>
2513

>  <Unit>
nM

>  <Type>
Ki

>  <pValue>
5.6

>  <Ligand Efficiency>
0.25

>  <Binding Efficiency>
12.8

>  <Surface Efficiency>
7.7

>  <Assay Index>
795922

>  <Assay Category>


>  <Assay Organism>
Homo sapiens

>  <Target ID>
56

>  <Target Name>
Androgen Receptor

>  <Target Organism>
Homo sapiens

>  <Target Description>
Target is a single protein chain

>  <Sequence Accession>
P10275

>  <Reference>
Bioorg Med Chem Lett 23 (19), 5442-5447 (2013)

>  <Pubmed ID>
23953070

>  <DOI>
10.1016/j.bmcl.2013.06.089

$$$$
1619630
Actelion Java MolfileCreator 1.0

 27 30  0  0  0  0  0  0  0  0999 V2000
    0.0000   -0.0000   -0.0000 S   0  0  0  0  0  0  0  0  0  0  0  0
   -0.7282   -1.2919   -0.0000 O   0  0  0  0  0  0  0  0  0  0  0  0
    0.7634   -1.2567   -0.0000 O   0  0  0  0  0  0  0  0  0  0  0  0
    1.2567    0.7869   -0.0000 N   0  0  0  0  0  0  0  0  0  0  0  0
   -1.3154    0.7282   -0.0000 C   0  0  0  0  0  0  0  0  0  0  0  0
    1.2097    2.2902   -0.0000 C   0  0  0  0  0  0  0  0  0  0  0  0
    2.4664    3.0771   -0.0000 C   0  0  0  0  0  0  0  0  0  0  0  0
   -0.1174    3.0184   -0.0000 C   0  0  0  0  0  0  0  0  0  0  0  0
    2.4194    4.5687   -0.0000 C   0  0  0  0  0  0  0  0  0  0  0  0
   -0.1527    4.5217   -0.0000 C   0  0  0  0  0  0  0  0  0  0  0  0
    1.1040    5.3086   -0.0000 C   0  0  0  0  0  0  0  0  0  0  0  0
    3.6878    5.3555   -0.0000 C   0  0  0  0  0  0  0  0  0  0  0  0
    3.6526    6.8588   -0.0000 C   0  0  0  0  0  0  0  0  0  0  0  0
    4.9797    7.5518   -0.0000 C   0  0  0  0  0  0  0  0  0  0  0  0
    2.2667    7.5048   -0.0000 C   0  0  0  0  0  0  0  0  0  0  0  0
    5.2733    9.0316   -0.0000 C   0  0  0  0  0  0  0  0  0  0  0  0
    6.0837    6.5652   -0.0000 C   0  0  0  0  0  0  0  0  0  0  0  0
    1.9026    8.9729   -0.0000 C   0  0  0  0  0  0  0  0  0  0  0  0
    1.1627    6.4830   -0.0000 C   0  0  0  0  0  0  0  0  0  0  0  0
    6.6709    9.5249   -0.0000 C   0  0  0  0  0  0  0  0  0  0  0  0
    4.3103   10.2061   -0.0000 C   0  0  0  0  0  0  0  0  0  0  0  0
    7.4931    7.0468   -0.0000 C   0  0  0  0  0  0  0  0  0  0  0  0
    0.4580    9.4074   -0.0000 C   0  0  0  0  0  0  0  0  0  0  0  0
    2.8070   10.1826   -0.0000 C   0  0  0  0  0  0  0  0  0  0  0  0
   -0.2819    6.9176   -0.0000 C   0  0  0  0  0  0  0  0  0  0  0  0
    7.7867    8.5501   -0.0000 C   0  0  0  0  0  0  0  0  0  0  0  0
   -0.6342    8.3974   -0.0000 C   0  0  0  0  0  0  0  0  0  0  0  0
  1  2  2  0  0  0  0
  1  3  2  0  0  0  0
  1  4  1  0  0  0  0
  1  5  1  0  0  0  0
  4  6  1  0  0  0  0
  6  7  2  0  0  0  0
  6  8  1  0  0  0  0
  7  9  1  0  0  0  0
  8 10  2  0  0  0  0
  9 11  2  0  0  0  0
  9 12  1  0  0  0  0
 12 13  2  0  0  0  0
 13 14  1  0  0  0  0
 13 15  1  0  0  0  0
 14 16  2  0  0  0  0
 14 17  1  0  0  0  0
 15 18  2  0  0  0  0
 15 19  1  0  0  0  0
 16 20  1  0  0  0  0
 16 21  1  0  0  0  0
 17 22  2  0  0  0  0
 18 23  1  0  0  0  0
 18 24  1  0  0  0  0
 19 25  2  0  0  0  0
 20 26  2  0  0  0  0
 23 27  2  0  0  0  0
 10 11  1  0  0  0  0
 21 24  1  0  0  0  0
 22 26  1  0  0  0  0
 25 27  1  0  0  0  0
M  END
>  <MolRegNo>
1619630

>  <m>
=

>  <Value>
418

>  <Unit>
nM

>  <Type>
Ki

>  <pValue>
6.38

>  <Ligand Efficiency>
0.32

>  <Binding Efficiency>
16.99

>  <Surface Efficiency>
13.82

>  <Assay Index>
825699

>  <Assay Category>


>  <Assay Organism>
Homo sapiens

>  <Target ID>
56

>  <Target Name>
Androgen Receptor

>  <Target Organism>
Homo sapiens

>  <Target Description>
Target is a single protein chain

>  <Sequence Accession>
P10275

>  <Reference>
J Med Chem 57 (3), 849-860 (2014)

>  <Pubmed ID>
24446728

>  <DOI>
10.1021/jm401616g

$$$$
1619629
Actelion Java MolfileCreator 1.0

 28 31  0  0  0  0  0  0  0  0999 V2000
    0.0000   -0.0000   -0.0000 S   0  0  0  0  0  0  0  0  0  0  0  0
   -0.7286   -1.2927   -0.0000 O   0  0  0  0  0  0  0  0  0  0  0  0
    0.7639   -1.2574   -0.0000 O   0  0  0  0  0  0  0  0  0  0  0  0
    1.2574    0.7874   -0.0000 N   0  0  0  0  0  0  0  0  0  0  0  0
   -1.3162    0.7286   -0.0000 C   0  0  0  0  0  0  0  0  0  0  0  0
    1.2104    2.2916   -0.0000 C   0  0  0  0  0  0  0  0  0  0  0  0
    2.4679    3.0789   -0.0000 C   0  0  0  0  0  0  0  0  0  0  0  0
   -0.1175    3.0202   -0.0000 C   0  0  0  0  0  0  0  0  0  0  0  0
    2.4209    4.5714   -0.0000 C   0  0  0  0  0  0  0  0  0  0  0  0
   -0.1528    4.5244   -0.0000 C   0  0  0  0  0  0  0  0  0  0  0  0
    3.6900    5.3588   -0.0000 C   0  0  0  0  0  0  0  0  0  0  0  0
    1.1047    5.3118   -0.0000 C   0  0  0  0  0  0  0  0  0  0  0  0
    3.6430    6.8630   -0.0000 C   0  0  0  0  0  0  0  0  0  0  0  0
    4.9827    4.6537   -0.0000 C   0  0  0  0  0  0  0  0  0  0  0  0
    4.9710    7.5563   -0.0000 C   0  0  0  0  0  0  0  0  0  0  0  0
    2.2563    7.5093   -0.0000 C   0  0  0  0  0  0  0  0  0  0  0  0
    5.2648    9.0371   -0.0000 C   0  0  0  0  0  0  0  0  0  0  0  0
    6.0756    6.5692   -0.0000 C   0  0  0  0  0  0  0  0  0  0  0  0
    1.8920    8.9783   -0.0000 C   0  0  0  0  0  0  0  0  0  0  0  0
    1.1517    6.4869   -0.0000 C   0  0  0  0  0  0  0  0  0  0  0  0
    4.3011   10.2122   -0.0000 O   0  0  0  0  0  0  0  0  0  0  0  0
    6.6632    9.5306   -0.0000 C   0  0  0  0  0  0  0  0  0  0  0  0
    7.4858    7.0510   -0.0000 C   0  0  0  0  0  0  0  0  0  0  0  0
    0.4466    9.4131   -0.0000 C   0  0  0  0  0  0  0  0  0  0  0  0
    2.7969   10.1887   -0.0000 C   0  0  0  0  0  0  0  0  0  0  0  0
   -0.2938    6.9218   -0.0000 C   0  0  0  0  0  0  0  0  0  0  0  0
    7.7796    8.5552   -0.0000 C   0  0  0  0  0  0  0  0  0  0  0  0
   -0.6463    8.4025   -0.0000 C   0  0  0  0  0  0  0  0  0  0  0  0
  1  2  2  0  0  0  0
  1  3  2  0  0  0  0
  1  4  1  0  0  0  0
  1  5  1  0  0  0  0
  4  6  1  0  0  0  0
  6  7  2  0  0  0  0
  6  8  1  0  0  0  0
  7  9  1  0  0  0  0
  8 10  2  0  0  0  0
  9 11  1  0  0  0  0
  9 12  2  0  0  0  0
 11 13  2  0  0  0  0
 11 14  1  0  0  0  0
 13 15  1  0  0  0  0
 13 16  1  0  0  0  0
 15 17  2  0  0  0  0
 15 18  1  0  0  0  0
 16 19  2  0  0  0  0
 16 20  1  0  0  0  0
 17 21  1  0  0  0  0
 17 22  1  0  0  0  0
 18 23  2  0  0  0  0
 19 24  1  0  0  0  0
 19 25  1  0  0  0  0
 20 26  2  0  0  0  0
 22 27  2  0  0  0  0
 24 28  2  0  0  0  0
 10 12  1  0  0  0  0
 21 25  1  0  0  0  0
 23 27  1  0  0  0  0
 26 28  1  0  0  0  0
M  END
>  <MolRegNo>
1619629

>  <m>
=

>  <Value>
5.98

>  <Unit>
nM

>  <Type>
Ki

>  <pValue>
8.22

>  <Ligand Efficiency>
0.4

>  <Binding Efficiency>
21.01

>  <Surface Efficiency>
14.84

>  <Assay Index>
825699

>  <Assay Category>


>  <Assay Organism>
Homo sapiens

>  <Target ID>
56

>  <Target Name>
Androgen Receptor

>  <Target Organism>
Homo sapiens

>  <Target Description>
Target is a single protein chain

>  <Sequence Accession>
P10275

>  <Reference>
J Med Chem 57 (3), 849-860 (2014)

>  <Pubmed ID>
24446728

>  <DOI>
10.1021/jm401616g

$$$$
1619628
Actelion Java MolfileCreator 1.0

 29 32  0  0  0  0  0  0  0  0999 V2000
    0.0000   -0.0000   -0.0000 S   0  0  0  0  0  0  0  0  0  0  0  0
   -0.7289   -1.2932   -0.0000 O   0  0  0  0  0  0  0  0  0  0  0  0
    0.7642   -1.2579   -0.0000 O   0  0  0  0  0  0  0  0  0  0  0  0
    1.2579    0.7877   -0.0000 N   0  0  0  0  0  0  0  0  0  0  0  0
   -1.3167    0.7289   -0.0000 C   0  0  0  0  0  0  0  0  0  0  0  0
    1.2109    2.2925   -0.0000 C   0  0  0  0  0  0  0  0  0  0  0  0
    2.4689    3.0802   -0.0000 C   0  0  0  0  0  0  0  0  0  0  0  0
   -0.1176    3.0214   -0.0000 C   0  0  0  0  0  0  0  0  0  0  0  0
    2.4218    4.5733   -0.0000 C   0  0  0  0  0  0  0  0  0  0  0  0
   -0.1528    4.5262   -0.0000 C   0  0  0  0  0  0  0  0  0  0  0  0
    3.6915    5.3610   -0.0000 C   0  0  0  0  0  0  0  0  0  0  0  0
    1.1051    5.3139   -0.0000 C   0  0  0  0  0  0  0  0  0  0  0  0
    3.6563    6.8658   -0.0000 C   0  0  0  0  0  0  0  0  0  0  0  0
    4.9848    4.6556   -0.0000 C   0  0  0  0  0  0  0  0  0  0  0  0
    4.9848    7.5594   -0.0000 C   0  0  0  0  0  0  0  0  0  0  0  0
    2.2690    7.5124   -0.0000 C   0  0  0  0  0  0  0  0  0  0  0  0
    4.9965    3.1743   -0.0000 C   0  0  0  0  0  0  0  0  0  0  0  0
    5.2787    9.0407   -0.0000 C   0  0  0  0  0  0  0  0  0  0  0  0
    6.0899    6.5719   -0.0000 C   0  0  0  0  0  0  0  0  0  0  0  0
    1.9046    8.9820   -0.0000 C   0  0  0  0  0  0  0  0  0  0  0  0
    1.1639    6.4896   -0.0000 C   0  0  0  0  0  0  0  0  0  0  0  0
    4.3146   10.2164   -0.0000 O   0  0  0  0  0  0  0  0  0  0  0  0
    6.6777    9.5345   -0.0000 C   0  0  0  0  0  0  0  0  0  0  0  0
    7.5006    7.0539   -0.0000 C   0  0  0  0  0  0  0  0  0  0  0  0
    0.4585    9.4170   -0.0000 C   0  0  0  0  0  0  0  0  0  0  0  0
    2.8098   10.1929   -0.0000 C   0  0  0  0  0  0  0  0  0  0  0  0
   -0.2822    6.9246   -0.0000 C   0  0  0  0  0  0  0  0  0  0  0  0
    7.7946    8.5587   -0.0000 C   0  0  0  0  0  0  0  0  0  0  0  0
   -0.6349    8.4059   -0.0000 C   0  0  0  0  0  0  0  0  0  0  0  0
  1  2  2  0  0  0  0
  1  3  2  0  0  0  0
  1  4  1  0  0  0  0
  1  5  1  0  0  0  0
  4  6  1  0  0  0  0
  6  7  2  0  0  0  0
  6  8  1  0  0  0  0
  7  9  1  0  0  0  0
  8 10  2  0  0  0  0
  9 11  1  0  0  0  0
  9 12  2  0  0  0  0
 11 13  2  0  0  0  0
 11 14  1  0  0  0  0
 13 15  1  0  0  0  0
 13 16  1  0  0  0  0
 14 17  1  0  0  0  0
 15 18  2  0  0  0  0
 15 19  1  0  0  0  0
 16 20  2  0  0  0  0
 16 21  1  0  0  0  0
 18 22  1  0  0  0  0
 18 23  1  0  0  0  0
 19 24  2  0  0  0  0
 20 25  1  0  0  0  0
 20 26  1  0  0  0  0
 21 27  2  0  0  0  0
 23 28  2  0  0  0  0
 25 29  2  0  0  0  0
 10 12  1  0  0  0  0
 22 26  1  0  0  0  0
 24 28  1  0  0  0  0
 27 29  1  0  0  0  0
M  END
>  <MolRegNo>
1619628

>  <m>
=

>  <Value>
9.74

>  <Unit>
nM

>  <Type>
Ki

>  <pValue>
8.01

>  <Ligand Efficiency>
0.38

>  <Binding Efficiency>
19.76

>  <Surface Efficiency>
14.46

>  <Assay Index>
825699

>  <Assay Category>


>  <Assay Organism>
Homo sapiens

>  <Target ID>
56

>  <Target Name>
Androgen Receptor

>  <Target Organism>
Homo sapiens

>  <Target Description>
Target is a single protein chain

>  <Sequence Accession>
P10275

>  <Reference>
J Med Chem 57 (3), 849-860 (2014)

>  <Pubmed ID>
24446728

>  <DOI>
10.1021/jm401616g

$$$$
1619627
Actelion Java MolfileCreator 1.0

 31 34  0  0  0  0  0  0  0  0999 V2000
    0.0000   -0.0000   -0.0000 S   0  0  0  0  0  0  0  0  0  0  0  0
   -0.7289   -1.2932   -0.0000 O   0  0  0  0  0  0  0  0  0  0  0  0
    0.7642   -1.2579   -0.0000 O   0  0  0  0  0  0  0  0  0  0  0  0
    1.2579    0.7877   -0.0000 N   0  0  0  0  0  0  0  0  0  0  0  0
   -1.3167    0.7289   -0.0000 C   0  0  0  0  0  0  0  0  0  0  0  0
    1.2109    2.2925   -0.0000 C   0  0  0  0  0  0  0  0  0  0  0  0
    2.4688    3.0801   -0.0000 C   0  0  0  0  0  0  0  0  0  0  0  0
   -0.1176    3.0214   -0.0000 C   0  0  0  0  0  0  0  0  0  0  0  0
    2.4218    4.5732   -0.0000 C   0  0  0  0  0  0  0  0  0  0  0  0
   -0.1528    4.5262   -0.0000 C   0  0  0  0  0  0  0  0  0  0  0  0
    3.6915    5.3608   -0.0000 C   0  0  0  0  0  0  0  0  0  0  0  0
    1.1051    5.3138   -0.0000 C   0  0  0  0  0  0  0  0  0  0  0  0
    3.6562    6.8656   -0.0000 C   0  0  0  0  0  0  0  0  0  0  0  0
    4.9846    4.6555   -0.0000 C   0  0  0  0  0  0  0  0  0  0  0  0
    2.2690    7.5122   -0.0000 C   0  0  0  0  0  0  0  0  0  0  0  0
    4.9846    7.5593   -0.0000 C   0  0  0  0  0  0  0  0  0  0  0  0
    4.9964    3.1742   -0.0000 C   0  0  0  0  0  0  0  0  0  0  0  0
    1.1639    6.4894   -0.0000 C   0  0  0  0  0  0  0  0  0  0  0  0
    1.9045    8.9818   -0.0000 C   0  0  0  0  0  0  0  0  0  0  0  0
    5.2785    9.0405   -0.0000 C   0  0  0  0  0  0  0  0  0  0  0  0
    6.0897    6.5717   -0.0000 C   0  0  0  0  0  0  0  0  0  0  0  0
   -0.1411    5.7723   -0.0000 O   0  0  0  0  0  0  0  0  0  0  0  0
   -0.2821    6.9244   -0.0000 C   0  0  0  0  0  0  0  0  0  0  0  0
    0.4585    9.4167   -0.0000 C   0  0  0  0  0  0  0  0  0  0  0  0
    2.8097   10.1927   -0.0000 C   0  0  0  0  0  0  0  0  0  0  0  0
    4.3145   10.2162   -0.0000 O   0  0  0  0  0  0  0  0  0  0  0  0
    6.6893    9.5343   -0.0000 C   0  0  0  0  0  0  0  0  0  0  0  0
    7.5005    7.0537   -0.0000 C   0  0  0  0  0  0  0  0  0  0  0  0
   -1.4343    6.5365   -0.0000 C   0  0  0  0  0  0  0  0  0  0  0  0
   -0.6348    8.3940   -0.0000 C   0  0  0  0  0  0  0  0  0  0  0  0
    7.8061    8.5585   -0.0000 C   0  0  0  0  0  0  0  0  0  0  0  0
  1  2  2  0  0  0  0
  1  3  2  0  0  0  0
  1  4  1  0  0  0  0
  1  5  1  0  0  0  0
  4  6  1  0  0  0  0
  6  7  2  0  0  0  0
  6  8  1  0  0  0  0
  7  9  1  0  0  0  0
  8 10  2  0  0  0  0
  9 11  1  0  0  0  0
  9 12  2  0  0  0  0
 11 13  2  0  0  0  0
 11 14  1  0  0  0  0
 13 15  1  0  0  0  0
 13 16  1  0  0  0  0
 14 17  1  0  0  0  0
 15 18  2  0  0  0  0
 15 19  1  0  0  0  0
 16 20  2  0  0  0  0
 16 21  1  0  0  0  0
 18 22  1  0  0  0  0
 18 23  1  0  0  0  0
 19 24  2  0  0  0  0
 19 25  1  0  0  0  0
 20 26  1  0  0  0  0
 20 27  1  0  0  0  0
 21 28  2  0  0  0  0
 22 29  1  0  0  0  0
 23 30  2  0  0  0  0
 27 31  2  0  0  0  0
 10 12  1  0  0  0  0
 24 30  1  0  0  0  0
 25 26  1  0  0  0  0
 28 31  1  0  0  0  0
M  END
>  <MolRegNo>
1619627

>  <m>
=

>  <Value>
239

>  <Unit>
nM

>  <Type>
Ki

>  <pValue>
6.62

>  <Ligand Efficiency>
0.29

>  <Binding Efficiency>
15.2

>  <Surface Efficiency>
10.25

>  <Assay Index>
825699

>  <Assay Category>


>  <Assay Organism>
Homo sapiens

>  <Target ID>
56

>  <Target Name>
Androgen Receptor

>  <Target Organism>
Homo sapiens

>  <Target Description>
Target is a single protein chain

>  <Sequence Accession>
P10275

>  <Reference>
J Med Chem 57 (3), 849-860 (2014)

>  <Pubmed ID>
24446728

>  <DOI>
10.1021/jm401616g

$$$$
1625069
Actelion Java MolfileCreator 1.0

166170  0  0  0  0  0  0  0  0999 V2000
    0.0000   -0.0000   -0.0000 S   0  0  0  0  0  0  0  0  0  0  0  0
   -1.3015    0.7761   -0.0000 C   0  0  0  0  0  0  0  0  0  0  0  0
   -1.3134    2.2805   -0.0000 C   0  0  0  0  0  0  0  0  0  0  0  0
   -2.6149    3.0447   -0.0000 N   0  0  0  0  0  0  0  0  0  0  0  0
   -0.0119    3.0447   -0.0000 C   0  0  0  0  0  0  0  0  0  0  0  0
   -3.9283    2.3164   -0.0000 C   0  0  0  0  0  0  0  0  0  0  0  0
   -0.0239    4.5491   -0.0000 O   0  0  0  0  0  0  0  0  0  0  0  0
    1.2656    2.3044   -0.0000 O   0  0  0  0  0  0  0  0  0  0  0  0
   -3.9521    0.8358   -0.0000 O   0  0  0  0  0  0  0  0  0  0  0  0
   -5.2417    3.0925   -0.0000 C   0  0  0  0  0  0  0  0  0  0  0  0
   -6.5551    2.3641   -0.0000 N   0  0  0  0  0  0  0  0  0  0  0  0
   -5.2417    4.5969   -0.0000 C   0  0  0  0  0  0  0  0  0  0  0  0
   -7.8446    3.1283   -0.0000 C   0  0  0  0  0  0  0  0  0  0  0  0
   -3.9402    5.3491   -0.0000 C   0  0  0  0  0  0  0  0  0  0  0  0
   -7.8565    4.6447   -0.0000 O   0  0  0  0  0  0  0  0  0  0  0  0
   -9.1818    2.4119   -0.0000 C   0  0  0  0  0  0  0  0  0  0  0  0
   -3.7969    6.8416   -0.0000 C   0  0  0  0  0  0  0  0  0  0  0  0
   -2.5790    4.7402   -0.0000 C   0  0  0  0  0  0  0  0  0  0  0  0
  -10.4714    3.1760   -0.0000 N   0  0  0  0  0  0  0  0  0  0  0  0
   -9.2057    0.9194   -0.0000 C   0  0  0  0  0  0  0  0  0  0  0  0
   -2.3283    7.1520   -0.0000 C   0  0  0  0  0  0  0  0  0  0  0  0
   -4.7999    7.9759   -0.0000 C   0  0  0  0  0  0  0  0  0  0  0  0
   -1.5880    5.8506   -0.0000 N   0  0  0  0  0  0  0  0  0  0  0  0
  -11.7848    2.4358   -0.0000 C   0  0  0  0  0  0  0  0  0  0  0  0
   -7.9162    0.1672   -0.0000 C   0  0  0  0  0  0  0  0  0  0  0  0
   -1.8626    8.5848   -0.0000 C   0  0  0  0  0  0  0  0  0  0  0  0
   -4.3462    9.4087   -0.0000 C   0  0  0  0  0  0  0  0  0  0  0  0
  -11.8206    0.9671   -0.0000 O   0  0  0  0  0  0  0  0  0  0  0  0
  -13.0862    3.2119   -0.0000 C   0  0  0  0  0  0  0  0  0  0  0  0
   -7.9401   -1.3134   -0.0000 C   0  0  0  0  0  0  0  0  0  0  0  0
   -2.8775    9.7072   -0.0000 C   0  0  0  0  0  0  0  0  0  0  0  0
  -14.3996    2.4835   -0.0000 N   0  0  0  0  0  0  0  0  0  0  0  0
  -13.0862    4.7282   -0.0000 C   0  0  0  0  0  0  0  0  0  0  0  0
   -6.6506   -2.0656   -0.0000 O   0  0  0  0  0  0  0  0  0  0  0  0
   -9.2415   -2.0417   -0.0000 O   0  0  0  0  0  0  0  0  0  0  0  0
  -15.7011    3.2596   -0.0000 C   0  0  0  0  0  0  0  0  0  0  0  0
  -11.7967    5.4685   -0.0000 C   0  0  0  0  0  0  0  0  0  0  0  0
  -15.6891    4.7641   -0.0000 O   0  0  0  0  0  0  0  0  0  0  0  0
  -17.0145    2.5313   -0.0000 C   0  0  0  0  0  0  0  0  0  0  0  0
  -11.8086    6.9849   -0.0000 C   0  0  0  0  0  0  0  0  0  0  0  0
  -18.3279    3.3074   -0.0000 N   0  0  0  0  0  0  0  0  0  0  0  0
  -17.0384    1.0388   -0.0000 C   0  0  0  0  0  0  0  0  0  0  0  0
  -10.5072    7.7371   -0.0000 C   0  0  0  0  0  0  0  0  0  0  0  0
  -19.6413    2.5790   -0.0000 C   0  0  0  0  0  0  0  0  0  0  0  0
  -15.7608    0.2985   -0.0000 S   0  0  0  0  0  0  0  0  0  0  0  0
  -10.5072    9.2535   -0.0000 N   0  0  0  0  0  0  0  0  0  0  0  0
  -19.6652    1.0985   -0.0000 O   0  0  0  0  0  0  0  0  0  0  0  0
  -20.9308    3.3432   -0.0000 C   0  0  0  0  0  0  0  0  0  0  0  0
  -22.2681    2.6149   -0.0000 N   0  0  0  0  0  0  0  0  0  0  0  0
  -20.9427    4.8596   -0.0000 C   0  0  0  0  0  0  0  0  0  0  0  0
  -23.5576    3.3790   -0.0000 C   0  0  0  0  0  0  0  0  0  0  0  0
  -19.6532    5.5999   -0.0000 O   0  0  0  0  0  0  0  0  0  0  0  0
  -22.2442    5.6237   -0.0000 C   0  0  0  0  0  0  0  0  0  0  0  0
  -23.5456    4.9073   -0.0000 O   0  0  0  0  0  0  0  0  0  0  0  0
  -24.8710    2.6507   -0.0000 C   0  0  0  0  0  0  0  0  0  0  0  0
  -26.1724    3.4268   -0.0000 N   0  0  0  0  0  0  0  0  0  0  0  0
  -24.9068    1.1821   -0.0000 C   0  0  0  0  0  0  0  0  0  0  0  0
  -27.4858    2.6984   -0.0000 C   0  0  0  0  0  0  0  0  0  0  0  0
  -23.6173    0.4298   -0.0000 C   0  0  0  0  0  0  0  0  0  0  0  0
  -27.5097    1.2059   -0.0000 O   0  0  0  0  0  0  0  0  0  0  0  0
  -28.7873    3.4745   -0.0000 C   0  0  0  0  0  0  0  0  0  0  0  0
  -23.6412   -1.0627   -0.0000 C   0  0  0  0  0  0  0  0  0  0  0  0
  -30.1007    2.7581   -0.0000 N   0  0  0  0  0  0  0  0  0  0  0  0
  -28.7873    4.9909   -0.0000 C   0  0  0  0  0  0  0  0  0  0  0  0
  -22.3636   -1.8029   -0.0000 O   0  0  0  0  0  0  0  0  0  0  0  0
  -24.9546   -1.7791   -0.0000 O   0  0  0  0  0  0  0  0  0  0  0  0
  -31.4022    3.5342   -0.0000 C   0  0  0  0  0  0  0  0  0  0  0  0
  -27.4858    5.7431   -0.0000 C   0  0  0  0  0  0  0  0  0  0  0  0
  -31.4022    5.0387   -0.0000 O   0  0  0  0  0  0  0  0  0  0  0  0
  -32.7156    2.8059   -0.0000 C   0  0  0  0  0  0  0  0  0  0  0  0
  -27.4858    7.2595   -0.0000 C   0  0  0  0  0  0  0  0  0  0  0  0
  -34.0051    3.5701   -0.0000 N   0  0  0  0  0  0  0  0  0  0  0  0
  -32.7394    1.3253   -0.0000 C   0  0  0  0  0  0  0  0  0  0  0  0
  -26.1963    8.0237   -0.0000 O   0  0  0  0  0  0  0  0  0  0  0  0
  -28.7992    8.0356   -0.0000 O   0  0  0  0  0  0  0  0  0  0  0  0
  -35.3424    2.8417   -0.0000 C   0  0  0  0  0  0  0  0  0  0  0  0
  -31.4619    0.5851   -0.0000 C   0  0  0  0  0  0  0  0  0  0  0  0
  -35.3543    1.3612   -0.0000 O   0  0  0  0  0  0  0  0  0  0  0  0
  -36.6319    3.6059   -0.0000 C   0  0  0  0  0  0  0  0  0  0  0  0
  -31.4738   -0.8955   -0.0000 O   0  0  0  0  0  0  0  0  0  0  0  0
  -30.1604    1.3253   -0.0000 O   0  0  0  0  0  0  0  0  0  0  0  0
  -37.9453    2.8775   -0.0000 N   0  0  0  0  0  0  0  0  0  0  0  0
  -36.6199    5.1223   -0.0000 C   0  0  0  0  0  0  0  0  0  0  0  0
  -39.2467    3.6536   -0.0000 C   0  0  0  0  0  0  0  0  0  0  0  0
  -35.3543    5.8745   -0.0000 C   0  0  0  0  0  0  0  0  0  0  0  0
  -39.2467    5.1700   -0.0000 O   0  0  0  0  0  0  0  0  0  0  0  0
  -40.5601    2.9253   -0.0000 C   0  0  0  0  0  0  0  0  0  0  0  0
  -35.3543    7.3789   -0.0000 O   0  0  0  0  0  0  0  0  0  0  0  0
  -34.0767    5.1223   -0.0000 N   0  0  0  0  0  0  0  0  0  0  0  0
  -41.8616    3.6895   -0.0000 N   0  0  0  0  0  0  0  0  0  0  0  0
  -43.1750    2.9731   -0.0000 C   0  0  0  0  0  0  0  0  0  0  0  0
  -43.1989    1.4806   -0.0000 O   0  0  0  0  0  0  0  0  0  0  0  0
  -44.4764    3.7372   -0.0000 C   0  0  0  0  0  0  0  0  0  0  0  0
  -45.8018    2.9969   -0.0000 N   0  0  0  0  0  0  0  0  0  0  0  0
  -44.4764    5.2417   -0.0000 C   0  0  0  0  0  0  0  0  0  0  0  0
  -47.0913    3.7611   -0.0000 C   0  0  0  0  0  0  0  0  0  0  0  0
  -43.1989    5.9939   -0.0000 C   0  0  0  0  0  0  0  0  0  0  0  0
  -47.0913    5.2894   -0.0000 O   0  0  0  0  0  0  0  0  0  0  0  0
  -48.4166    3.0447   -0.0000 C   0  0  0  0  0  0  0  0  0  0  0  0
  -43.1869    7.5222   -0.0000 C   0  0  0  0  0  0  0  0  0  0  0  0
  -49.7300    3.8208   -0.0000 N   0  0  0  0  0  0  0  0  0  0  0  0
  -48.4405    1.5641   -0.0000 C   0  0  0  0  0  0  0  0  0  0  0  0
  -41.9093    8.2625   -0.0000 O   0  0  0  0  0  0  0  0  0  0  0  0
  -44.5003    8.2983   -0.0000 O   0  0  0  0  0  0  0  0  0  0  0  0
  -49.7181    5.3372   -0.0000 C   0  0  0  0  0  0  0  0  0  0  0  0
  -47.1629    0.8119   -0.0000 C   0  0  0  0  0  0  0  0  0  0  0  0
  -48.4405    6.0894   -0.0000 O   0  0  0  0  0  0  0  0  0  0  0  0
  -51.0315    6.1133   -0.0000 C   0  0  0  0  0  0  0  0  0  0  0  0
  -47.1868   -0.6806   -0.0000 C   0  0  0  0  0  0  0  0  0  0  0  0
  -45.8854    1.5641   -0.0000 C   0  0  0  0  0  0  0  0  0  0  0  0
  -51.0315    7.6296   -0.0000 N   0  0  0  0  0  0  0  0  0  0  0  0
  -52.3449    5.3849   -0.0000 C   0  0  0  0  0  0  0  0  0  0  0  0
  -45.9092   -1.4209   -0.0000 C   0  0  0  0  0  0  0  0  0  0  0  0
  -44.6078    0.8119   -0.0000 C   0  0  0  0  0  0  0  0  0  0  0  0
  -49.7539    8.3819   -0.0000 C   0  0  0  0  0  0  0  0  0  0  0  0
  -53.6463    6.1491   -0.0000 C   0  0  0  0  0  0  0  0  0  0  0  0
  -44.6197   -0.6686   -0.0000 C   0  0  0  0  0  0  0  0  0  0  0  0
  -48.4763    7.6296   -0.0000 O   0  0  0  0  0  0  0  0  0  0  0  0
  -49.7539    9.8982   -0.0000 C   0  0  0  0  0  0  0  0  0  0  0  0
  -54.9717    5.4208   -0.0000 C   0  0  0  0  0  0  0  0  0  0  0  0
  -53.6583    7.6655   -0.0000 C   0  0  0  0  0  0  0  0  0  0  0  0
  -48.4644   10.6385   -0.0000 N   0  0  0  0  0  0  0  0  0  0  0  0
  -51.0554   10.6624   -0.0000 C   0  0  0  0  0  0  0  0  0  0  0  0
  -48.4525   12.1668   -0.0000 C   0  0  0  0  0  0  0  0  0  0  0  0
  -52.3807    9.9341   -0.0000 S   0  0  0  0  0  0  0  0  0  0  0  0
  -49.7539   12.9429   -0.0000 O   0  0  0  0  0  0  0  0  0  0  0  0
  -47.1868   12.9071   -0.0000 C   0  0  0  0  0  0  0  0  0  0  0  0
  -47.1749   14.4235   -0.0000 N   0  0  0  0  0  0  0  0  0  0  0  0
  -45.9092   12.1549   -0.0000 C   0  0  0  0  0  0  0  0  0  0  0  0
  -45.8854   15.1757   -0.0000 C   0  0  0  0  0  0  0  0  0  0  0  0
  -45.9212   10.6743   -0.0000 C   0  0  0  0  0  0  0  0  0  0  0  0
  -44.6078   14.4235   -0.0000 O   0  0  0  0  0  0  0  0  0  0  0  0
  -45.8973   16.6802   -0.0000 C   0  0  0  0  0  0  0  0  0  0  0  0
  -44.6436    9.9221   -0.0000 O   0  0  0  0  0  0  0  0  0  0  0  0
  -47.2346    9.9460   -0.0000 N   0  0  0  0  0  0  0  0  0  0  0  0
  -44.5958   17.4324   -0.0000 N   0  0  0  0  0  0  0  0  0  0  0  0
  -47.1868   17.4443   -0.0000 C   0  0  0  0  0  0  0  0  0  0  0  0
  -44.6078   18.9368   -0.0000 C   0  0  0  0  0  0  0  0  0  0  0  0
  -48.5002   16.7160   -0.0000 C   0  0  0  0  0  0  0  0  0  0  0  0
  -45.9092   19.7010   -0.0000 O   0  0  0  0  0  0  0  0  0  0  0  0
  -43.3183   19.6771   -0.0000 C   0  0  0  0  0  0  0  0  0  0  0  0
  -48.5122   15.2235   -0.0000 C   0  0  0  0  0  0  0  0  0  0  0  0
  -49.8017   17.4682   -0.0000 C   0  0  0  0  0  0  0  0  0  0  0  0
  -43.3183   21.1935   -0.0000 N   0  0  0  0  0  0  0  0  0  0  0  0
  -42.0407   18.9249   -0.0000 C   0  0  0  0  0  0  0  0  0  0  0  0
  -49.8255   14.4951   -0.0000 C   0  0  0  0  0  0  0  0  0  0  0  0
  -51.1151   16.7399   -0.0000 C   0  0  0  0  0  0  0  0  0  0  0  0
  -42.0287   21.9337   -0.0000 C   0  0  0  0  0  0  0  0  0  0  0  0
  -42.0646   17.4443   -0.0000 C   0  0  0  0  0  0  0  0  0  0  0  0
  -51.1389   15.2712   -0.0000 C   0  0  0  0  0  0  0  0  0  0  0  0
  -40.7512   21.1815   -0.0000 O   0  0  0  0  0  0  0  0  0  0  0  0
  -42.0287   23.4382   -0.0000 C   0  0  0  0  0  0  0  0  0  0  0  0
  -40.7750   16.7040   -0.0000 C   0  0  0  0  0  0  0  0  0  0  0  0
  -43.3660   16.7279   -0.0000 C   0  0  0  0  0  0  0  0  0  0  0  0
  -40.7273   24.2023   -0.0000 N   0  0  0  0  0  0  0  0  0  0  0  0
  -43.3302   24.2143   -0.0000 C   0  0  0  0  0  0  0  0  0  0  0  0
  -40.7870   15.2354   -0.0000 C   0  0  0  0  0  0  0  0  0  0  0  0
  -43.3899   15.2354   -0.0000 C   0  0  0  0  0  0  0  0  0  0  0  0
  -40.7273   25.7068   -0.0000 C   0  0  0  0  0  0  0  0  0  0  0  0
  -44.6436   23.4859   -0.0000 S   0  0  0  0  0  0  0  0  0  0  0  0
  -42.0884   14.4951   -0.0000 C   0  0  0  0  0  0  0  0  0  0  0  0
  -42.0287   26.4709   -0.0000 O   0  0  0  0  0  0  0  0  0  0  0  0
  -39.4258   26.4590   -0.0000 C   0  0  0  0  0  0  0  0  0  0  0  0
  -42.1123   13.0146   -0.0000 O   0  0  0  0  0  0  0  0  0  0  0  0
  -39.4258   27.9754   -0.0000 N   0  0  0  0  0  0  0  0  0  0  0  0
  -38.1482   25.7187   -0.0000 C   0  0  0  0  0  0  0  0  0  0  0  0
  1  2  1  0  0  0  0
  2  3  1  0  0  0  0
  3  4  1  6  0  0  0
  3  5  1  0  0  0  0
  4  6  1  0  0  0  0
  5  7  2  0  0  0  0
  5  8  1  0  0  0  0
  6  9  2  0  0  0  0
  6 10  1  0  0  0  0
 10 11  1  1  0  0  0
 10 12  1  0  0  0  0
 11 13  1  0  0  0  0
 12 14  1  0  0  0  0
 13 15  2  0  0  0  0
 13 16  1  0  0  0  0
 14 17  1  0  0  0  0
 14 18  2  0  0  0  0
 16 19  1  6  0  0  0
 16 20  1  0  0  0  0
 17 21  2  0  0  0  0
 17 22  1  0  0  0  0
 18 23  1  0  0  0  0
 19 24  1  0  0  0  0
 20 25  1  0  0  0  0
 21 26  1  0  0  0  0
 22 27  2  0  0  0  0
 24 28  2  0  0  0  0
 24 29  1  0  0  0  0
 25 30  1  0  0  0  0
 26 31  2  0  0  0  0
 29 32  1  1  0  0  0
 29 33  1  0  0  0  0
 30 34  2  0  0  0  0
 30 35  1  0  0  0  0
 32 36  1  0  0  0  0
 33 37  1  0  0  0  0
 36 38  2  0  0  0  0
 36 39  1  0  0  0  0
 37 40  1  0  0  0  0
 39 41  1  6  0  0  0
 39 42  1  0  0  0  0
 40 43  1  0  0  0  0
 41 44  1  0  0  0  0
 42 45  1  0  0  0  0
 43 46  1  0  0  0  0
 44 47  2  0  0  0  0
 44 48  1  0  0  0  0
 48 49  1  1  0  0  0
 48 50  1  0  0  0  0
 49 51  1  0  0  0  0
 50 52  1  1  0  0  0
 50 53  1  0  0  0  0
 51 54  2  0  0  0  0
 51 55  1  0  0  0  0
 55 56  1  6  0  0  0
 55 57  1  0  0  0  0
 56 58  1  0  0  0  0
 57 59  1  0  0  0  0
 58 60  2  0  0  0  0
 58 61  1  0  0  0  0
 59 62  1  0  0  0  0
 61 63  1  1  0  0  0
 61 64  1  0  0  0  0
 62 65  2  0  0  0  0
 62 66  1  0  0  0  0
 63 67  1  0  0  0  0
 64 68  1  0  0  0  0
 67 69  2  0  0  0  0
 67 70  1  0  0  0  0
 68 71  1  0  0  0  0
 70 72  1  6  0  0  0
 70 73  1  0  0  0  0
 71 74  2  0  0  0  0
 71 75  1  0  0  0  0
 72 76  1  0  0  0  0
 73 77  1  0  0  0  0
 76 78  2  0  0  0  0
 76 79  1  0  0  0  0
 77 80  2  0  0  0  0
 77 81  1  0  0  0  0
 79 82  1  1  0  0  0
 79 83  1  0  0  0  0
 82 84  1  0  0  0  0
 83 85  1  0  0  0  0
 84 86  2  0  0  0  0
 84 87  1  0  0  0  0
 85 88  2  0  0  0  0
 85 89  1  0  0  0  0
 87 90  1  0  0  0  0
 90 91  1  0  0  0  0
 91 92  2  0  0  0  0
 91 93  1  0  0  0  0
 93 94  1  1  0  0  0
 93 95  1  0  0  0  0
 94 96  1  0  0  0  0
 95 97  1  0  0  0  0
 96 98  2  0  0  0  0
 96 99  1  0  0  0  0
 97100  1  0  0  0  0
 99101  1  6  0  0  0
 99102  1  0  0  0  0
100103  2  0  0  0  0
100104  1  0  0  0  0
101105  1  0  0  0  0
102106  1  0  0  0  0
105107  2  0  0  0  0
105108  1  0  0  0  0
106109  1  0  0  0  0
106110  1  0  0  0  0
108111  1  6  0  0  0
108112  1  0  0  0  0
109113  1  0  0  0  0
110114  1  0  0  0  0
111115  1  0  0  0  0
112116  1  0  0  0  0
113117  1  0  0  0  0
115118  2  0  0  0  0
115119  1  0  0  0  0
116120  1  0  0  0  0
116121  1  0  0  0  0
119122  1  6  0  0  0
119123  1  0  0  0  0
122124  1  0  0  0  0
123125  1  0  0  0  0
124126  2  0  0  0  0
124127  1  0  0  0  0
127128  1  1  0  0  0
127129  1  0  0  0  0
128130  1  0  0  0  0
129131  1  0  0  0  0
130132  2  0  0  0  0
130133  1  0  0  0  0
131134  2  0  0  0  0
131135  1  0  0  0  0
133136  1  6  0  0  0
133137  1  0  0  0  0
136138  1  0  0  0  0
137139  1  0  0  0  0
138140  2  0  0  0  0
138141  1  0  0  0  0
139142  2  0  0  0  0
139143  1  0  0  0  0
141144  1  1  0  0  0
141145  1  0  0  0  0
142146  1  0  0  0  0
143147  2  0  0  0  0
144148  1  0  0  0  0
145149  1  0  0  0  0
146150  2  0  0  0  0
148151  2  0  0  0  0
148152  1  0  0  0  0
149153  2  0  0  0  0
149154  1  0  0  0  0
152155  1  6  0  0  0
152156  1  0  0  0  0
153157  1  0  0  0  0
154158  2  0  0  0  0
155159  1  0  0  0  0
156160  1  0  0  0  0
157161  2  0  0  0  0
159162  2  0  0  0  0
159163  1  0  0  0  0
161164  1  0  0  0  0
163165  1  1  0  0  0
163166  1  0  0  0  0
 21 23  1  0  0  0  0
 27 31  1  0  0  0  0
114117  1  0  0  0  0
147150  1  0  0  0  0
158161  1  0  0  0  0
M  END
>  <MolRegNo>
1625069

>  <m>
=

>  <Value>
2300

>  <Unit>
nM

>  <Type>
Ki

>  <pValue>
5.64

>  <Ligand Efficiency>
0

>  <Binding Efficiency>
2.34

>  <Surface Efficiency>
0

>  <Assay Index>
831551

>  <Assay Category>


>  <Assay Organism>
Homo sapiens

>  <Target ID>
56

>  <Target Name>
Androgen Receptor

>  <Target Organism>
Homo sapiens

>  <Target Description>
Target is a single protein chain

>  <Sequence Accession>
P10275

>  <Reference>
Medchemcomm 4 (1), 187-192 (2013)

>  <Pubmed ID>


>  <DOI>
10.1039/C2MD20182H

$$$$
1625068
Actelion Java MolfileCreator 1.0

166170  0  0  0  0  0  0  0  0999 V2000
    0.0000   -0.0000   -0.0000 S   0  0  0  0  0  0  0  0  0  0  0  0
    0.4812   -1.3916   -0.0000 C   0  0  0  0  0  0  0  0  0  0  0  0
    1.9378   -1.6517   -0.0000 C   0  0  0  0  0  0  0  0  0  0  0  0
    2.4320   -3.0563   -0.0000 N   0  0  0  0  0  0  0  0  0  0  0  0
    2.9002   -0.5202   -0.0000 C   0  0  0  0  0  0  0  0  0  0  0  0
    1.4306   -4.1747   -0.0000 C   0  0  0  0  0  0  0  0  0  0  0  0
    2.3930    0.9104   -0.0000 O   0  0  0  0  0  0  0  0  0  0  0  0
    4.3568   -0.7803   -0.0000 O   0  0  0  0  0  0  0  0  0  0  0  0
    1.9118   -5.5663   -0.0000 O   0  0  0  0  0  0  0  0  0  0  0  0
   -0.0520   -3.8886   -0.0000 C   0  0  0  0  0  0  0  0  0  0  0  0
   -0.5592   -2.4710   -0.0000 N   0  0  0  0  0  0  0  0  0  0  0  0
   -1.0404   -5.0071   -0.0000 C   0  0  0  0  0  0  0  0  0  0  0  0
   -2.0418   -2.1849   -0.0000 C   0  0  0  0  0  0  0  0  0  0  0  0
   -0.5592   -6.4117   -0.0000 C   0  0  0  0  0  0  0  0  0  0  0  0
   -3.0303   -3.2904   -0.0000 O   0  0  0  0  0  0  0  0  0  0  0  0
   -2.5491   -0.7673   -0.0000 C   0  0  0  0  0  0  0  0  0  0  0  0
   -1.4046   -7.6212   -0.0000 C   0  0  0  0  0  0  0  0  0  0  0  0
    0.8714   -6.8148   -0.0000 C   0  0  0  0  0  0  0  0  0  0  0  0
   -4.0317   -0.4812   -0.0000 N   0  0  0  0  0  0  0  0  0  0  0  0
   -1.5867    0.3772   -0.0000 C   0  0  0  0  0  0  0  0  0  0  0  0
   -0.5072   -8.7916   -0.0000 C   0  0  0  0  0  0  0  0  0  0  0  0
   -2.9002   -7.8032   -0.0000 C   0  0  0  0  0  0  0  0  0  0  0  0
    1.2095   -8.4535   -0.0000 N   0  0  0  0  0  0  0  0  0  0  0  0
   -5.0201   -1.5997   -0.0000 C   0  0  0  0  0  0  0  0  0  0  0  0
   -2.0939    1.8077   -0.0000 C   0  0  0  0  0  0  0  0  0  0  0  0
   -1.0925  -10.1572   -0.0000 C   0  0  0  0  0  0  0  0  0  0  0  0
   -3.4854   -9.1688   -0.0000 C   0  0  0  0  0  0  0  0  0  0  0  0
   -4.5389   -2.9912   -0.0000 O   0  0  0  0  0  0  0  0  0  0  0  0
   -6.5027   -1.3135   -0.0000 C   0  0  0  0  0  0  0  0  0  0  0  0
   -3.5765    2.0939   -0.0000 C   0  0  0  0  0  0  0  0  0  0  0  0
   -2.6011  -10.3263   -0.0000 C   0  0  0  0  0  0  0  0  0  0  0  0
   -7.0099    0.1040   -0.0000 N   0  0  0  0  0  0  0  0  0  0  0  0
   -7.4911   -2.4190   -0.0000 C   0  0  0  0  0  0  0  0  0  0  0  0
   -4.0837    3.5115   -0.0000 O   0  0  0  0  0  0  0  0  0  0  0  0
   -4.5649    0.9754   -0.0000 O   0  0  0  0  0  0  0  0  0  0  0  0
   -8.4925    0.3902   -0.0000 C   0  0  0  0  0  0  0  0  0  0  0  0
   -7.0099   -3.8236   -0.0000 C   0  0  0  0  0  0  0  0  0  0  0  0
   -9.4809   -0.7283   -0.0000 O   0  0  0  0  0  0  0  0  0  0  0  0
   -8.9997    1.8077   -0.0000 C   0  0  0  0  0  0  0  0  0  0  0  0
   -5.5403   -4.0837   -0.0000 C   0  0  0  0  0  0  0  0  0  0  0  0
   -8.0503    2.9522   -0.0000 N   0  0  0  0  0  0  0  0  0  0  0  0
  -10.4823    2.0939   -0.0000 C   0  0  0  0  0  0  0  0  0  0  0  0
   -5.0721   -5.4753   -0.0000 C   0  0  0  0  0  0  0  0  0  0  0  0
   -8.5575    4.3828   -0.0000 C   0  0  0  0  0  0  0  0  0  0  0  0
  -11.4707    0.9754   -0.0000 S   0  0  0  0  0  0  0  0  0  0  0  0
   -3.6025   -5.7354   -0.0000 N   0  0  0  0  0  0  0  0  0  0  0  0
  -10.0271    4.6689   -0.0000 O   0  0  0  0  0  0  0  0  0  0  0  0
   -7.5951    5.5143   -0.0000 C   0  0  0  0  0  0  0  0  0  0  0  0
   -8.1024    6.9319   -0.0000 N   0  0  0  0  0  0  0  0  0  0  0  0
   -6.1385    5.2542   -0.0000 C   0  0  0  0  0  0  0  0  0  0  0  0
   -9.5850    7.2180   -0.0000 C   0  0  0  0  0  0  0  0  0  0  0  0
   -5.1631    6.3986   -0.0000 O   0  0  0  0  0  0  0  0  0  0  0  0
   -5.6573    3.8626   -0.0000 C   0  0  0  0  0  0  0  0  0  0  0  0
  -10.5734    6.0995   -0.0000 O   0  0  0  0  0  0  0  0  0  0  0  0
  -10.0922    8.6356   -0.0000 C   0  0  0  0  0  0  0  0  0  0  0  0
  -11.5748    8.9217   -0.0000 N   0  0  0  0  0  0  0  0  0  0  0  0
   -9.1298    9.7800   -0.0000 C   0  0  0  0  0  0  0  0  0  0  0  0
  -12.5632    7.8032   -0.0000 C   0  0  0  0  0  0  0  0  0  0  0  0
   -7.6732    9.5199   -0.0000 C   0  0  0  0  0  0  0  0  0  0  0  0
  -12.0820    6.4117   -0.0000 O   0  0  0  0  0  0  0  0  0  0  0  0
  -14.0458    8.0893   -0.0000 C   0  0  0  0  0  0  0  0  0  0  0  0
   -6.7108   10.6644   -0.0000 C   0  0  0  0  0  0  0  0  0  0  0  0
  -15.0342    6.9709   -0.0000 N   0  0  0  0  0  0  0  0  0  0  0  0
  -14.5530    9.5069   -0.0000 C   0  0  0  0  0  0  0  0  0  0  0  0
   -5.2542   10.4043   -0.0000 O   0  0  0  0  0  0  0  0  0  0  0  0
   -7.2180   12.0820   -0.0000 O   0  0  0  0  0  0  0  0  0  0  0  0
  -14.5530    5.5663   -0.0000 C   0  0  0  0  0  0  0  0  0  0  0  0
  -16.0356    9.7930   -0.0000 C   0  0  0  0  0  0  0  0  0  0  0  0
  -13.0964    5.3062   -0.0000 O   0  0  0  0  0  0  0  0  0  0  0  0
  -15.5414    4.4478   -0.0000 C   0  0  0  0  0  0  0  0  0  0  0  0
  -16.5428   11.2106   -0.0000 C   0  0  0  0  0  0  0  0  0  0  0  0
  -17.0240    4.7340   -0.0000 N   0  0  0  0  0  0  0  0  0  0  0  0
  -15.0602    3.0563   -0.0000 C   0  0  0  0  0  0  0  0  0  0  0  0
  -18.0255   11.4968   -0.0000 O   0  0  0  0  0  0  0  0  0  0  0  0
  -15.5804   12.3551   -0.0000 O   0  0  0  0  0  0  0  0  0  0  0  0
  -17.5312    6.1515   -0.0000 C   0  0  0  0  0  0  0  0  0  0  0  0
  -16.0486    1.9378   -0.0000 C   0  0  0  0  0  0  0  0  0  0  0  0
  -16.5689    7.2960   -0.0000 O   0  0  0  0  0  0  0  0  0  0  0  0
  -19.0139    6.4377   -0.0000 C   0  0  0  0  0  0  0  0  0  0  0  0
  -15.5674    0.5332   -0.0000 O   0  0  0  0  0  0  0  0  0  0  0  0
  -17.5312    2.2239   -0.0000 O   0  0  0  0  0  0  0  0  0  0  0  0
  -19.5211    7.8552   -0.0000 N   0  0  0  0  0  0  0  0  0  0  0  0
  -20.0023    5.3192   -0.0000 C   0  0  0  0  0  0  0  0  0  0  0  0
  -21.0037    8.1414   -0.0000 C   0  0  0  0  0  0  0  0  0  0  0  0
  -19.5211    3.9146   -0.0000 C   0  0  0  0  0  0  0  0  0  0  0  0
  -21.9921    7.0229   -0.0000 O   0  0  0  0  0  0  0  0  0  0  0  0
  -21.5109    9.5590   -0.0000 C   0  0  0  0  0  0  0  0  0  0  0  0
  -20.5095    2.7962   -0.0000 O   0  0  0  0  0  0  0  0  0  0  0  0
  -18.0645    3.6545   -0.0000 N   0  0  0  0  0  0  0  0  0  0  0  0
  -22.9935    9.8451   -0.0000 N   0  0  0  0  0  0  0  0  0  0  0  0
  -23.5007   11.2627   -0.0000 C   0  0  0  0  0  0  0  0  0  0  0  0
  -22.5383   12.4071   -0.0000 O   0  0  0  0  0  0  0  0  0  0  0  0
  -24.9833   11.5488   -0.0000 C   0  0  0  0  0  0  0  0  0  0  0  0
  -25.9717   10.4303   -0.0000 N   0  0  0  0  0  0  0  0  0  0  0  0
  -25.4905   12.9794   -0.0000 C   0  0  0  0  0  0  0  0  0  0  0  0
  -27.4544   10.7164   -0.0000 C   0  0  0  0  0  0  0  0  0  0  0  0
  -24.5281   14.1238   -0.0000 C   0  0  0  0  0  0  0  0  0  0  0  0
  -27.9616   12.1470   -0.0000 O   0  0  0  0  0  0  0  0  0  0  0  0
  -28.4428    9.5980   -0.0000 C   0  0  0  0  0  0  0  0  0  0  0  0
  -25.0354   15.5544   -0.0000 C   0  0  0  0  0  0  0  0  0  0  0  0
  -27.9616    8.1934   -0.0000 N   0  0  0  0  0  0  0  0  0  0  0  0
  -29.9254    9.8841   -0.0000 C   0  0  0  0  0  0  0  0  0  0  0  0
  -24.0730   16.6859   -0.0000 O   0  0  0  0  0  0  0  0  0  0  0  0
  -26.5180   15.8405   -0.0000 O   0  0  0  0  0  0  0  0  0  0  0  0
  -28.9500    7.0749   -0.0000 C   0  0  0  0  0  0  0  0  0  0  0  0
  -30.4326   11.3017   -0.0000 C   0  0  0  0  0  0  0  0  0  0  0  0
  -30.4326    7.3610   -0.0000 O   0  0  0  0  0  0  0  0  0  0  0  0
  -28.4688    5.6703   -0.0000 C   0  0  0  0  0  0  0  0  0  0  0  0
  -29.4832   12.4461   -0.0000 C   0  0  0  0  0  0  0  0  0  0  0  0
  -31.9152   11.5878   -0.0000 C   0  0  0  0  0  0  0  0  0  0  0  0
  -29.4572    4.5519   -0.0000 N   0  0  0  0  0  0  0  0  0  0  0  0
  -27.0122    5.4102   -0.0000 C   0  0  0  0  0  0  0  0  0  0  0  0
  -29.9904   13.8637   -0.0000 C   0  0  0  0  0  0  0  0  0  0  0  0
  -32.4224   13.0054   -0.0000 C   0  0  0  0  0  0  0  0  0  0  0  0
  -30.9398    4.8380   -0.0000 C   0  0  0  0  0  0  0  0  0  0  0  0
  -26.0498    6.5547   -0.0000 C   0  0  0  0  0  0  0  0  0  0  0  0
  -31.4730   14.1499   -0.0000 C   0  0  0  0  0  0  0  0  0  0  0  0
  -31.4470    6.2686   -0.0000 O   0  0  0  0  0  0  0  0  0  0  0  0
  -31.9282    3.7195   -0.0000 C   0  0  0  0  0  0  0  0  0  0  0  0
  -26.5570    7.9723   -0.0000 C   0  0  0  0  0  0  0  0  0  0  0  0
  -24.5932    6.2946   -0.0000 C   0  0  0  0  0  0  0  0  0  0  0  0
  -33.4108    4.0057   -0.0000 N   0  0  0  0  0  0  0  0  0  0  0  0
  -31.4470    2.3280   -0.0000 C   0  0  0  0  0  0  0  0  0  0  0  0
  -33.9180    5.4232   -0.0000 C   0  0  0  0  0  0  0  0  0  0  0  0
  -29.9904    2.0679   -0.0000 S   0  0  0  0  0  0  0  0  0  0  0  0
  -32.9556    6.5677   -0.0000 O   0  0  0  0  0  0  0  0  0  0  0  0
  -35.4006    5.7094   -0.0000 C   0  0  0  0  0  0  0  0  0  0  0  0
  -36.3890    4.5909   -0.0000 N   0  0  0  0  0  0  0  0  0  0  0  0
  -35.9078    7.1400   -0.0000 C   0  0  0  0  0  0  0  0  0  0  0  0
  -37.8717    4.8770   -0.0000 C   0  0  0  0  0  0  0  0  0  0  0  0
  -34.9454    8.2844   -0.0000 C   0  0  0  0  0  0  0  0  0  0  0  0
  -38.3789    6.2946   -0.0000 O   0  0  0  0  0  0  0  0  0  0  0  0
  -38.8601    3.7586   -0.0000 C   0  0  0  0  0  0  0  0  0  0  0  0
  -35.4527    9.7150   -0.0000 O   0  0  0  0  0  0  0  0  0  0  0  0
  -33.4888    8.0243   -0.0000 N   0  0  0  0  0  0  0  0  0  0  0  0
  -40.3427    4.0447   -0.0000 N   0  0  0  0  0  0  0  0  0  0  0  0
  -38.3789    2.3670   -0.0000 C   0  0  0  0  0  0  0  0  0  0  0  0
  -40.8369    5.4623   -0.0000 C   0  0  0  0  0  0  0  0  0  0  0  0
  -39.3543    1.2485   -0.0000 C   0  0  0  0  0  0  0  0  0  0  0  0
  -39.8745    6.6067   -0.0000 O   0  0  0  0  0  0  0  0  0  0  0  0
  -42.3195    5.7484   -0.0000 C   0  0  0  0  0  0  0  0  0  0  0  0
  -38.8731   -0.1561   -0.0000 C   0  0  0  0  0  0  0  0  0  0  0  0
  -40.8369    1.5346   -0.0000 C   0  0  0  0  0  0  0  0  0  0  0  0
  -42.8267    7.1660   -0.0000 N   0  0  0  0  0  0  0  0  0  0  0  0
  -43.3079    4.6299   -0.0000 C   0  0  0  0  0  0  0  0  0  0  0  0
  -39.8485   -1.2745   -0.0000 C   0  0  0  0  0  0  0  0  0  0  0  0
  -41.8253    0.4162   -0.0000 C   0  0  0  0  0  0  0  0  0  0  0  0
  -41.8643    8.3104   -0.0000 C   0  0  0  0  0  0  0  0  0  0  0  0
  -44.7775    4.9160   -0.0000 C   0  0  0  0  0  0  0  0  0  0  0  0
  -41.3181   -0.9884   -0.0000 C   0  0  0  0  0  0  0  0  0  0  0  0
  -40.4077    8.0503   -0.0000 O   0  0  0  0  0  0  0  0  0  0  0  0
  -42.3585    9.7280   -0.0000 C   0  0  0  0  0  0  0  0  0  0  0  0
  -45.7789    3.7846   -0.0000 C   0  0  0  0  0  0  0  0  0  0  0  0
  -45.2717    6.3336   -0.0000 C   0  0  0  0  0  0  0  0  0  0  0  0
  -43.8411   10.0141   -0.0000 N   0  0  0  0  0  0  0  0  0  0  0  0
  -41.3961   10.8725   -0.0000 C   0  0  0  0  0  0  0  0  0  0  0  0
  -47.2615    4.0707   -0.0000 C   0  0  0  0  0  0  0  0  0  0  0  0
  -46.7673    6.6197   -0.0000 C   0  0  0  0  0  0  0  0  0  0  0  0
  -44.3353   11.4447   -0.0000 C   0  0  0  0  0  0  0  0  0  0  0  0
  -41.8903   12.3031   -0.0000 S   0  0  0  0  0  0  0  0  0  0  0  0
  -47.7688    5.4883   -0.0000 C   0  0  0  0  0  0  0  0  0  0  0  0
  -43.3729   12.5892   -0.0000 O   0  0  0  0  0  0  0  0  0  0  0  0
  -45.8310   11.7309   -0.0000 C   0  0  0  0  0  0  0  0  0  0  0  0
  -49.2514    5.7744   -0.0000 O   0  0  0  0  0  0  0  0  0  0  0  0
  -46.3382   13.1484   -0.0000 N   0  0  0  0  0  0  0  0  0  0  0  0
  -46.8194   10.6124   -0.0000 C   0  0  0  0  0  0  0  0  0  0  0  0
  1  2  1  0  0  0  0
  2  3  1  0  0  0  0
  3  4  1  1  0  0  0
  3  5  1  0  0  0  0
  4  6  1  0  0  0  0
  5  7  2  0  0  0  0
  5  8  1  0  0  0  0
  6  9  2  0  0  0  0
  6 10  1  0  0  0  0
 10 11  1  6  0  0  0
 10 12  1  0  0  0  0
 11 13  1  0  0  0  0
 12 14  1  0  0  0  0
 13 15  2  0  0  0  0
 13 16  1  0  0  0  0
 14 17  1  0  0  0  0
 14 18  2  0  0  0  0
 16 19  1  1  0  0  0
 16 20  1  0  0  0  0
 17 21  2  0  0  0  0
 17 22  1  0  0  0  0
 18 23  1  0  0  0  0
 19 24  1  0  0  0  0
 20 25  1  0  0  0  0
 21 26  1  0  0  0  0
 22 27  2  0  0  0  0
 24 28  2  0  0  0  0
 24 29  1  0  0  0  0
 25 30  1  0  0  0  0
 26 31  2  0  0  0  0
 29 32  1  6  0  0  0
 29 33  1  0  0  0  0
 30 34  2  0  0  0  0
 30 35  1  0  0  0  0
 32 36  1  0  0  0  0
 33 37  1  0  0  0  0
 36 38  2  0  0  0  0
 36 39  1  0  0  0  0
 37 40  1  0  0  0  0
 39 41  1  6  0  0  0
 39 42  1  0  0  0  0
 40 43  1  0  0  0  0
 41 44  1  0  0  0  0
 42 45  1  0  0  0  0
 43 46  1  0  0  0  0
 44 47  2  0  0  0  0
 44 48  1  0  0  0  0
 48 49  1  1  0  0  0
 48 50  1  0  0  0  0
 49 51  1  0  0  0  0
 50 52  1  6  0  0  0
 50 53  1  0  0  0  0
 51 54  2  0  0  0  0
 51 55  1  0  0  0  0
 55 56  1  1  0  0  0
 55 57  1  0  0  0  0
 56 58  1  0  0  0  0
 57 59  1  0  0  0  0
 58 60  2  0  0  0  0
 58 61  1  0  0  0  0
 59 62  1  0  0  0  0
 61 63  1  1  0  0  0
 61 64  1  0  0  0  0
 62 65  2  0  0  0  0
 62 66  1  0  0  0  0
 63 67  1  0  0  0  0
 64 68  1  0  0  0  0
 67 69  2  0  0  0  0
 67 70  1  0  0  0  0
 68 71  1  0  0  0  0
 70 72  1  6  0  0  0
 70 73  1  0  0  0  0
 71 74  2  0  0  0  0
 71 75  1  0  0  0  0
 72 76  1  0  0  0  0
 73 77  1  0  0  0  0
 76 78  2  0  0  0  0
 76 79  1  0  0  0  0
 77 80  2  0  0  0  0
 77 81  1  0  0  0  0
 79 82  1  6  0  0  0
 79 83  1  0  0  0  0
 82 84  1  0  0  0  0
 83 85  1  0  0  0  0
 84 86  2  0  0  0  0
 84 87  1  0  0  0  0
 85 88  2  0  0  0  0
 85 89  1  0  0  0  0
 87 90  1  0  0  0  0
 90 91  1  0  0  0  0
 91 92  2  0  0  0  0
 91 93  1  0  0  0  0
 93 94  1  1  0  0  0
 93 95  1  0  0  0  0
 94 96  1  0  0  0  0
 95 97  1  0  0  0  0
 96 98  2  0  0  0  0
 96 99  1  0  0  0  0
 97100  1  0  0  0  0
 99101  1  1  0  0  0
 99102  1  0  0  0  0
100103  2  0  0  0  0
100104  1  0  0  0  0
101105  1  0  0  0  0
102106  1  0  0  0  0
105107  2  0  0  0  0
105108  1  0  0  0  0
106109  2  0  0  0  0
106110  1  0  0  0  0
108111  1  6  0  0  0
108112  1  0  0  0  0
109113  1  0  0  0  0
110114  2  0  0  0  0
111115  1  0  0  0  0
112116  1  0  0  0  0
113117  2  0  0  0  0
115118  2  0  0  0  0
115119  1  0  0  0  0
116120  1  0  0  0  0
116121  1  0  0  0  0
119122  1  6  0  0  0
119123  1  0  0  0  0
122124  1  0  0  0  0
123125  1  0  0  0  0
124126  2  0  0  0  0
124127  1  0  0  0  0
127128  1  1  0  0  0
127129  1  0  0  0  0
128130  1  0  0  0  0
129131  1  0  0  0  0
130132  2  0  0  0  0
130133  1  0  0  0  0
131134  2  0  0  0  0
131135  1  0  0  0  0
133136  1  6  0  0  0
133137  1  0  0  0  0
136138  1  0  0  0  0
137139  1  0  0  0  0
138140  2  0  0  0  0
138141  1  0  0  0  0
139142  1  0  0  0  0
139143  1  0  0  0  0
141144  1  6  0  0  0
141145  1  0  0  0  0
142146  1  0  0  0  0
143147  1  0  0  0  0
144148  1  0  0  0  0
145149  1  0  0  0  0
146150  1  0  0  0  0
148151  2  0  0  0  0
148152  1  0  0  0  0
149153  2  0  0  0  0
149154  1  0  0  0  0
152155  1  6  0  0  0
152156  1  0  0  0  0
153157  1  0  0  0  0
154158  2  0  0  0  0
155159  1  0  0  0  0
156160  1  0  0  0  0
157161  2  0  0  0  0
159162  2  0  0  0  0
159163  1  0  0  0  0
161164  1  0  0  0  0
163165  1  6  0  0  0
163166  1  0  0  0  0
 21 23  1  0  0  0  0
 27 31  1  0  0  0  0
114117  1  0  0  0  0
147150  1  0  0  0  0
158161  1  0  0  0  0
M  END
>  <MolRegNo>
1625068

>  <m>
=

>  <Value>
3000

>  <Unit>
nM

>  <Type>
Ki

>  <pValue>
5.52

>  <Ligand Efficiency>
0

>  <Binding Efficiency>
2.29

>  <Surface Efficiency>
0

>  <Assay Index>
831551

>  <Assay Category>


>  <Assay Organism>
Homo sapiens

>  <Target ID>
56

>  <Target Name>
Androgen Receptor

>  <Target Organism>
Homo sapiens

>  <Target Description>
Target is a single protein chain

>  <Sequence Accession>
P10275

>  <Reference>
Medchemcomm 4 (1), 187-192 (2013)

>  <Pubmed ID>


>  <DOI>
10.1039/C2MD20182H

$$$$
1625067
Actelion Java MolfileCreator 1.0

167171  0  0  0  0  0  0  0  0999 V2000
    0.0000   -0.0000   -0.0000 Cl  0  0  0  0  0  0  0  0  0  0  0  0
    1.2709   -0.7553   -0.0000 C   0  0  0  0  0  0  0  0  0  0  0  0
    1.2349   -2.2300   -0.0000 C   0  0  0  0  0  0  0  0  0  0  0  0
    2.5657   -0.0120   -0.0000 C   0  0  0  0  0  0  0  0  0  0  0  0
    2.5177   -2.9853   -0.0000 C   0  0  0  0  0  0  0  0  0  0  0  0
   -0.0959   -2.9494   -0.0000 C   0  0  0  0  0  0  0  0  0  0  0  0
    3.8486   -0.7673   -0.0000 C   0  0  0  0  0  0  0  0  0  0  0  0
    3.8246   -2.2540   -0.0000 C   0  0  0  0  0  0  0  0  0  0  0  0
   -0.1319   -4.4360   -0.0000 C   0  0  0  0  0  0  0  0  0  0  0  0
   -1.4387   -5.1554   -0.0000 N   0  0  0  0  0  0  0  0  0  0  0  0
    1.1630   -5.2033   -0.0000 C   0  0  0  0  0  0  0  0  0  0  0  0
   -2.7455   -4.3761   -0.0000 C   0  0  0  0  0  0  0  0  0  0  0  0
    1.1270   -6.6900   -0.0000 O   0  0  0  0  0  0  0  0  0  0  0  0
    2.4578   -4.4600   -0.0000 N   0  0  0  0  0  0  0  0  0  0  0  0
   -2.7455   -2.8774   -0.0000 O   0  0  0  0  0  0  0  0  0  0  0  0
   -4.0883   -5.1074   -0.0000 C   0  0  0  0  0  0  0  0  0  0  0  0
    3.7287   -5.2153   -0.0000 C   0  0  0  0  0  0  0  0  0  0  0  0
   -5.3712   -4.3401   -0.0000 N   0  0  0  0  0  0  0  0  0  0  0  0
   -4.1123   -6.6061   -0.0000 C   0  0  0  0  0  0  0  0  0  0  0  0
    5.0235   -4.4720   -0.0000 C   0  0  0  0  0  0  0  0  0  0  0  0
    3.7047   -6.7020   -0.0000 C   0  0  0  0  0  0  0  0  0  0  0  0
   -5.3712   -2.8055   -0.0000 C   0  0  0  0  0  0  0  0  0  0  0  0
   -5.4431   -7.3254   -0.0000 C   0  0  0  0  0  0  0  0  0  0  0  0
    5.0355   -2.9613   -0.0000 O   0  0  0  0  0  0  0  0  0  0  0  0
    6.3064   -5.2273   -0.0000 N   0  0  0  0  0  0  0  0  0  0  0  0
    4.9875   -7.4573   -0.0000 C   0  0  0  0  0  0  0  0  0  0  0  0
   -4.0764   -2.0622   -0.0000 O   0  0  0  0  0  0  0  0  0  0  0  0
   -6.6780   -2.0262   -0.0000 C   0  0  0  0  0  0  0  0  0  0  0  0
   -5.4671   -8.8241   -0.0000 C   0  0  0  0  0  0  0  0  0  0  0  0
   -6.7380   -6.5461   -0.0000 C   0  0  0  0  0  0  0  0  0  0  0  0
    7.6012   -4.4840   -0.0000 C   0  0  0  0  0  0  0  0  0  0  0  0
    4.9636   -8.9440   -0.0000 C   0  0  0  0  0  0  0  0  0  0  0  0
   -6.6660   -0.5155   -0.0000 N   0  0  0  0  0  0  0  0  0  0  0  0
   -8.0088   -2.7455   -0.0000 C   0  0  0  0  0  0  0  0  0  0  0  0
    8.8960   -5.2393   -0.0000 C   0  0  0  0  0  0  0  0  0  0  0  0
    6.2464   -9.6993   -0.0000 O   0  0  0  0  0  0  0  0  0  0  0  0
    3.6327   -9.6634   -0.0000 O   0  0  0  0  0  0  0  0  0  0  0  0
   -7.9609    0.2758   -0.0000 C   0  0  0  0  0  0  0  0  0  0  0  0
   -8.0448   -4.2322   -0.0000 S   0  0  0  0  0  0  0  0  0  0  0  0
    8.8601   -6.7380   -0.0000 O   0  0  0  0  0  0  0  0  0  0  0  0
   10.1909   -4.4960   -0.0000 N   0  0  0  0  0  0  0  0  0  0  0  0
   -9.2917   -0.4436   -0.0000 O   0  0  0  0  0  0  0  0  0  0  0  0
   -7.9489    1.7864   -0.0000 C   0  0  0  0  0  0  0  0  0  0  0  0
   11.4737   -5.2513   -0.0000 C   0  0  0  0  0  0  0  0  0  0  0  0
   -9.2677    2.5777   -0.0000 N   0  0  0  0  0  0  0  0  0  0  0  0
   -6.6540    2.5297   -0.0000 C   0  0  0  0  0  0  0  0  0  0  0  0
   12.7686   -4.5080   -0.0000 C   0  0  0  0  0  0  0  0  0  0  0  0
   11.4498   -6.7500   -0.0000 C   0  0  0  0  0  0  0  0  0  0  0  0
   -9.2557    4.0883   -0.0000 C   0  0  0  0  0  0  0  0  0  0  0  0
   -5.3712    1.7744   -0.0000 C   0  0  0  0  0  0  0  0  0  0  0  0
   12.7806   -2.9973   -0.0000 O   0  0  0  0  0  0  0  0  0  0  0  0
   14.0634   -5.2633   -0.0000 N   0  0  0  0  0  0  0  0  0  0  0  0
   12.7206   -7.5053   -0.0000 C   0  0  0  0  0  0  0  0  0  0  0  0
   -7.9489    4.8317   -0.0000 O   0  0  0  0  0  0  0  0  0  0  0  0
  -10.5506    4.8676   -0.0000 C   0  0  0  0  0  0  0  0  0  0  0  0
   -4.0764    2.5177   -0.0000 O   0  0  0  0  0  0  0  0  0  0  0  0
   -5.3952    0.2758   -0.0000 N   0  0  0  0  0  0  0  0  0  0  0  0
   15.3583   -4.5200   -0.0000 C   0  0  0  0  0  0  0  0  0  0  0  0
   12.6966   -9.0039   -0.0000 O   0  0  0  0  0  0  0  0  0  0  0  0
   14.0155   -6.7619   -0.0000 N   0  0  0  0  0  0  0  0  0  0  0  0
  -10.5506    6.3903   -0.0000 N   0  0  0  0  0  0  0  0  0  0  0  0
  -11.8814    4.1483   -0.0000 C   0  0  0  0  0  0  0  0  0  0  0  0
   16.6411   -5.2873   -0.0000 C   0  0  0  0  0  0  0  0  0  0  0  0
   15.3463   -3.0093   -0.0000 C   0  0  0  0  0  0  0  0  0  0  0  0
  -11.8694    7.1696   -0.0000 C   0  0  0  0  0  0  0  0  0  0  0  0
  -11.9293    2.6616   -0.0000 C   0  0  0  0  0  0  0  0  0  0  0  0
   16.6171   -6.7739   -0.0000 O   0  0  0  0  0  0  0  0  0  0  0  0
   17.9359   -4.5439   -0.0000 N   0  0  0  0  0  0  0  0  0  0  0  0
   16.6651   -2.2540   -0.0000 C   0  0  0  0  0  0  0  0  0  0  0  0
  -13.1762    6.4502   -0.0000 O   0  0  0  0  0  0  0  0  0  0  0  0
  -11.8454    8.6922   -0.0000 C   0  0  0  0  0  0  0  0  0  0  0  0
  -10.6465    1.9063   -0.0000 C   0  0  0  0  0  0  0  0  0  0  0  0
  -13.2481    1.9303   -0.0000 C   0  0  0  0  0  0  0  0  0  0  0  0
   19.2308   -5.2873   -0.0000 C   0  0  0  0  0  0  0  0  0  0  0  0
   16.6771   -0.7433   -0.0000 O   0  0  0  0  0  0  0  0  0  0  0  0
   17.9479   -3.0213   -0.0000 O   0  0  0  0  0  0  0  0  0  0  0  0
  -13.1642    9.4715   -0.0000 N   0  0  0  0  0  0  0  0  0  0  0  0
  -10.5506    9.4356   -0.0000 C   0  0  0  0  0  0  0  0  0  0  0  0
  -10.6704    0.4076   -0.0000 C   0  0  0  0  0  0  0  0  0  0  0  0
  -13.2961    0.4556   -0.0000 C   0  0  0  0  0  0  0  0  0  0  0  0
   20.5256   -4.5439   -0.0000 C   0  0  0  0  0  0  0  0  0  0  0  0
   19.1828   -6.7979   -0.0000 C   0  0  0  0  0  0  0  0  0  0  0  0
  -13.1522   10.9942   -0.0000 C   0  0  0  0  0  0  0  0  0  0  0  0
   -9.2677    8.6802   -0.0000 C   0  0  0  0  0  0  0  0  0  0  0  0
  -12.0132   -0.2997   -0.0000 C   0  0  0  0  0  0  0  0  0  0  0  0
   20.5376   -3.0333   -0.0000 O   0  0  0  0  0  0  0  0  0  0  0  0
   21.8085   -5.2993   -0.0000 N   0  0  0  0  0  0  0  0  0  0  0  0
   20.4657   -7.5413   -0.0000 C   0  0  0  0  0  0  0  0  0  0  0  0
  -11.8574   11.7375   -0.0000 O   0  0  0  0  0  0  0  0  0  0  0  0
  -14.4591   11.7735   -0.0000 C   0  0  0  0  0  0  0  0  0  0  0  0
   -7.9729    9.4236   -0.0000 C   0  0  0  0  0  0  0  0  0  0  0  0
   -9.2917    7.1696   -0.0000 C   0  0  0  0  0  0  0  0  0  0  0  0
   23.1153   -4.5559   -0.0000 C   0  0  0  0  0  0  0  0  0  0  0  0
   20.4417   -9.0399   -0.0000 C   0  0  0  0  0  0  0  0  0  0  0  0
  -14.4471   13.2961   -0.0000 N   0  0  0  0  0  0  0  0  0  0  0  0
  -15.7899   11.0541   -0.0000 C   0  0  0  0  0  0  0  0  0  0  0  0
   -6.6780    8.6563   -0.0000 C   0  0  0  0  0  0  0  0  0  0  0  0
   -8.0208    6.4143   -0.0000 C   0  0  0  0  0  0  0  0  0  0  0  0
   24.3862   -5.3112   -0.0000 C   0  0  0  0  0  0  0  0  0  0  0  0
   23.1153   -3.0453   -0.0000 C   0  0  0  0  0  0  0  0  0  0  0  0
   21.7246   -9.7832   -0.0000 O   0  0  0  0  0  0  0  0  0  0  0  0
   19.1229   -9.7593   -0.0000 O   0  0  0  0  0  0  0  0  0  0  0  0
  -15.7659   14.0754   -0.0000 C   0  0  0  0  0  0  0  0  0  0  0  0
  -15.8138    9.5674   -0.0000 S   0  0  0  0  0  0  0  0  0  0  0  0
   -6.7140    7.1576   -0.0000 C   0  0  0  0  0  0  0  0  0  0  0  0
   24.3622   -6.8099   -0.0000 O   0  0  0  0  0  0  0  0  0  0  0  0
   25.6930   -4.5679   -0.0000 N   0  0  0  0  0  0  0  0  0  0  0  0
   24.4102   -2.3019   -0.0000 C   0  0  0  0  0  0  0  0  0  0  0  0
  -17.0847   13.3560   -0.0000 O   0  0  0  0  0  0  0  0  0  0  0  0
  -15.7539   15.5980   -0.0000 C   0  0  0  0  0  0  0  0  0  0  0  0
   -5.4191    6.4023   -0.0000 O   0  0  0  0  0  0  0  0  0  0  0  0
   26.9759   -5.3232   -0.0000 C   0  0  0  0  0  0  0  0  0  0  0  0
   24.4221   -0.7913   -0.0000 C   0  0  0  0  0  0  0  0  0  0  0  0
  -17.0607   16.3773   -0.0000 N   0  0  0  0  0  0  0  0  0  0  0  0
  -14.4471   16.3534   -0.0000 C   0  0  0  0  0  0  0  0  0  0  0  0
   28.2827   -4.5799   -0.0000 C   0  0  0  0  0  0  0  0  0  0  0  0
   26.9399   -6.8099   -0.0000 C   0  0  0  0  0  0  0  0  0  0  0  0
   25.7170   -0.0480   -0.0000 O   0  0  0  0  0  0  0  0  0  0  0  0
   23.1153   -0.0120   -0.0000 O   0  0  0  0  0  0  0  0  0  0  0  0
   28.2827   -3.0693   -0.0000 O   0  0  0  0  0  0  0  0  0  0  0  0
   29.5655   -5.3352   -0.0000 N   0  0  0  0  0  0  0  0  0  0  0  0
   28.2227   -7.5652   -0.0000 O   0  0  0  0  0  0  0  0  0  0  0  0
   25.6091   -7.5413   -0.0000 C   0  0  0  0  0  0  0  0  0  0  0  0
   30.8604   -4.5919   -0.0000 C   0  0  0  0  0  0  0  0  0  0  0  0
   32.1552   -5.3472   -0.0000 C   0  0  0  0  0  0  0  0  0  0  0  0
   30.8724   -3.0812   -0.0000 C   0  0  0  0  0  0  0  0  0  0  0  0
   32.1193   -6.8459   -0.0000 O   0  0  0  0  0  0  0  0  0  0  0  0
   33.4501   -4.6039   -0.0000 N   0  0  0  0  0  0  0  0  0  0  0  0
   32.1792   -2.3259   -0.0000 S   0  0  0  0  0  0  0  0  0  0  0  0
   34.7329   -5.3592   -0.0000 C   0  0  0  0  0  0  0  0  0  0  0  0
   36.0397   -4.6039   -0.0000 C   0  0  0  0  0  0  0  0  0  0  0  0
   34.6969   -6.8459   -0.0000 C   0  0  0  0  0  0  0  0  0  0  0  0
   36.0517   -3.0812   -0.0000 O   0  0  0  0  0  0  0  0  0  0  0  0
   37.3226   -5.3592   -0.0000 N   0  0  0  0  0  0  0  0  0  0  0  0
   35.9798   -7.6012   -0.0000 C   0  0  0  0  0  0  0  0  0  0  0  0
   38.6174   -4.6159   -0.0000 C   0  0  0  0  0  0  0  0  0  0  0  0
   35.9438   -9.0879   -0.0000 C   0  0  0  0  0  0  0  0  0  0  0  0
   39.9003   -5.3832   -0.0000 C   0  0  0  0  0  0  0  0  0  0  0  0
   38.6174   -3.1052   -0.0000 C   0  0  0  0  0  0  0  0  0  0  0  0
   37.2267   -9.8432   -0.0000 C   0  0  0  0  0  0  0  0  0  0  0  0
   39.8763   -6.8699   -0.0000 O   0  0  0  0  0  0  0  0  0  0  0  0
   41.1951   -4.6398   -0.0000 N   0  0  0  0  0  0  0  0  0  0  0  0
   39.9243   -2.3619   -0.0000 C   0  0  0  0  0  0  0  0  0  0  0  0
   37.1787  -11.3418   -0.0000 N   0  0  0  0  0  0  0  0  0  0  0  0
   42.4780   -5.3952   -0.0000 C   0  0  0  0  0  0  0  0  0  0  0  0
   39.9363   -0.8392   -0.0000 C   0  0  0  0  0  0  0  0  0  0  0  0
   43.7728   -4.6518   -0.0000 C   0  0  0  0  0  0  0  0  0  0  0  0
   42.4420   -6.8938   -0.0000 C   0  0  0  0  0  0  0  0  0  0  0  0
   41.2431   -0.0959   -0.0000 O   0  0  0  0  0  0  0  0  0  0  0  0
   38.6294   -0.0599   -0.0000 O   0  0  0  0  0  0  0  0  0  0  0  0
   43.7728   -3.1412   -0.0000 O   0  0  0  0  0  0  0  0  0  0  0  0
   45.0557   -5.4072   -0.0000 N   0  0  0  0  0  0  0  0  0  0  0  0
   43.7249   -7.6492   -0.0000 C   0  0  0  0  0  0  0  0  0  0  0  0
   46.3505   -4.6638   -0.0000 C   0  0  0  0  0  0  0  0  0  0  0  0
   43.8448   -9.1358   -0.0000 C   0  0  0  0  0  0  0  0  0  0  0  0
   45.0916   -7.0497   -0.0000 C   0  0  0  0  0  0  0  0  0  0  0  0
   47.6334   -5.4311   -0.0000 C   0  0  0  0  0  0  0  0  0  0  0  0
   46.3505   -3.1532   -0.0000 C   0  0  0  0  0  0  0  0  0  0  0  0
   45.2955   -9.4595   -0.0000 C   0  0  0  0  0  0  0  0  0  0  0  0
   42.8137  -10.2268   -0.0000 C   0  0  0  0  0  0  0  0  0  0  0  0
   46.0628   -8.1647   -0.0000 N   0  0  0  0  0  0  0  0  0  0  0  0
   47.6094   -6.9178   -0.0000 O   0  0  0  0  0  0  0  0  0  0  0  0
   48.9282   -4.6878   -0.0000 O   0  0  0  0  0  0  0  0  0  0  0  0
   47.6573   -2.4098   -0.0000 S   0  0  0  0  0  0  0  0  0  0  0  0
   45.7271  -10.8863   -0.0000 C   0  0  0  0  0  0  0  0  0  0  0  0
   43.2453  -11.6536   -0.0000 C   0  0  0  0  0  0  0  0  0  0  0  0
   44.6960  -11.9773   -0.0000 C   0  0  0  0  0  0  0  0  0  0  0  0
  1  2  1  0  0  0  0
  2  3  2  0  0  0  0
  2  4  1  0  0  0  0
  3  5  1  0  0  0  0
  3  6  1  0  0  0  0
  4  7  2  0  0  0  0
  5  8  2  0  0  0  0
  6  9  1  0  0  0  0
  9 10  1  1  0  0  0
  9 11  1  0  0  0  0
 10 12  1  0  0  0  0
 11 13  2  0  0  0  0
 11 14  1  0  0  0  0
 12 15  2  0  0  0  0
 12 16  1  0  0  0  0
 17 14  1  6  0  0  0
 16 18  1  6  0  0  0
 16 19  1  0  0  0  0
 17 20  1  0  0  0  0
 17 21  1  0  0  0  0
 18 22  1  0  0  0  0
 19 23  1  0  0  0  0
 20 24  2  0  0  0  0
 20 25  1  0  0  0  0
 21 26  1  0  0  0  0
 22 27  2  0  0  0  0
 22 28  1  0  0  0  0
 23 29  1  0  0  0  0
 23 30  1  0  0  0  0
 25 31  1  0  0  0  0
 26 32  1  0  0  0  0
 28 33  1  6  0  0  0
 28 34  1  0  0  0  0
 31 35  1  0  0  0  0
 32 36  2  0  0  0  0
 32 37  1  0  0  0  0
 33 38  1  0  0  0  0
 34 39  1  0  0  0  0
 35 40  2  0  0  0  0
 35 41  1  0  0  0  0
 38 42  2  0  0  0  0
 38 43  1  0  0  0  0
 44 41  1  6  0  0  0
 43 45  1  1  0  0  0
 43 46  1  0  0  0  0
 44 47  1  0  0  0  0
 44 48  1  0  0  0  0
 45 49  1  0  0  0  0
 46 50  1  0  0  0  0
 47 51  2  0  0  0  0
 47 52  1  0  0  0  0
 48 53  1  0  0  0  0
 49 54  2  0  0  0  0
 49 55  1  0  0  0  0
 50 56  2  0  0  0  0
 50 57  1  0  0  0  0
 58 52  1  1  0  0  0
 53 59  2  0  0  0  0
 53 60  1  0  0  0  0
 55 61  1  6  0  0  0
 55 62  1  0  0  0  0
 58 63  1  0  0  0  0
 58 64  1  0  0  0  0
 61 65  1  0  0  0  0
 62 66  1  0  0  0  0
 63 67  2  0  0  0  0
 63 68  1  0  0  0  0
 64 69  1  0  0  0  0
 65 70  2  0  0  0  0
 65 71  1  0  0  0  0
 66 72  2  0  0  0  0
 66 73  1  0  0  0  0
 74 68  1  6  0  0  0
 69 75  2  0  0  0  0
 69 76  1  0  0  0  0
 71 77  1  1  0  0  0
 71 78  1  0  0  0  0
 72 79  1  0  0  0  0
 73 80  2  0  0  0  0
 74 81  1  0  0  0  0
 74 82  1  0  0  0  0
 77 83  1  0  0  0  0
 78 84  1  0  0  0  0
 79 85  2  0  0  0  0
 81 86  2  0  0  0  0
 81 87  1  0  0  0  0
 82 88  1  0  0  0  0
 83 89  2  0  0  0  0
 83 90  1  0  0  0  0
 84 91  2  0  0  0  0
 84 92  1  0  0  0  0
 93 87  1  1  0  0  0
 88 94  1  0  0  0  0
 90 95  1  6  0  0  0
 90 96  1  0  0  0  0
 91 97  1  0  0  0  0
 92 98  2  0  0  0  0
 93 99  1  0  0  0  0
 93100  1  0  0  0  0
 94101  2  0  0  0  0
 94102  1  0  0  0  0
 95103  1  0  0  0  0
 96104  1  0  0  0  0
 97105  2  0  0  0  0
 99106  2  0  0  0  0
 99107  1  0  0  0  0
100108  1  0  0  0  0
103109  2  0  0  0  0
103110  1  0  0  0  0
105111  1  0  0  0  0
112107  1  6  0  0  0
108113  1  0  0  0  0
110114  1  1  0  0  0
110115  1  0  0  0  0
112116  1  0  0  0  0
112117  1  0  0  0  0
113118  2  0  0  0  0
113119  1  0  0  0  0
116120  2  0  0  0  0
116121  1  0  0  0  0
117122  1  6  0  0  0
117123  1  0  0  0  0
124121  1  1  0  0  0
124125  1  0  0  0  0
124126  1  0  0  0  0
125127  2  0  0  0  0
125128  1  0  0  0  0
126129  1  0  0  0  0
130128  1  6  0  0  0
130131  1  0  0  0  0
130132  1  0  0  0  0
131133  2  0  0  0  0
131134  1  0  0  0  0
132135  1  0  0  0  0
136134  1  1  0  0  0
135137  1  0  0  0  0
136138  1  0  0  0  0
136139  1  0  0  0  0
137140  1  0  0  0  0
138141  2  0  0  0  0
138142  1  0  0  0  0
139143  1  0  0  0  0
140144  1  0  0  0  0
145142  1  6  0  0  0
143146  1  0  0  0  0
145147  1  0  0  0  0
145148  1  0  0  0  0
146149  2  0  0  0  0
146150  1  0  0  0  0
147151  2  0  0  0  0
147152  1  0  0  0  0
148153  1  0  0  0  0
154152  1  1  0  0  0
153155  1  0  0  0  0
153156  2  0  0  0  0
154157  1  0  0  0  0
154158  1  0  0  0  0
155159  2  0  0  0  0
155160  1  0  0  0  0
156161  1  0  0  0  0
157162  2  0  0  0  0
157163  1  0  0  0  0
158164  1  0  0  0  0
159165  1  0  0  0  0
160166  2  0  0  0  0
165167  2  0  0  0  0
  7  8  1  0  0  0  0
 80 85  1  0  0  0  0
 98105  1  0  0  0  0
159161  1  0  0  0  0
166167  1  0  0  0  0
M  END
>  <MolRegNo>
1625067

>  <m>
=

>  <Value>
3000

>  <Unit>
nM

>  <Type>
Ki

>  <pValue>
5.52

>  <Ligand Efficiency>
0

>  <Binding Efficiency>
2.26

>  <Surface Efficiency>
0

>  <Assay Index>
831551

>  <Assay Category>


>  <Assay Organism>
Homo sapiens

>  <Target ID>
56

>  <Target Name>
Androgen Receptor

>  <Target Organism>
Homo sapiens

>  <Target Description>
Target is a single protein chain

>  <Sequence Accession>
P10275

>  <Reference>
Medchemcomm 4 (1), 187-192 (2013)

>  <Pubmed ID>


>  <DOI>
10.1039/C2MD20182H

$$$$
1625066
Actelion Java MolfileCreator 1.0

167171  0  0  0  0  0  0  0  0999 V2000
    0.0000   -0.0000   -0.0000 Cl  0  0  0  0  0  0  0  0  0  0  0  0
   -1.3184   -0.7191   -0.0000 C   0  0  0  0  0  0  0  0  0  0  0  0
   -1.3544   -2.2173   -0.0000 C   0  0  0  0  0  0  0  0  0  0  0  0
   -2.6248    0.0599   -0.0000 C   0  0  0  0  0  0  0  0  0  0  0  0
   -2.6848   -2.9245   -0.0000 C   0  0  0  0  0  0  0  0  0  0  0  0
   -3.9432   -0.6592   -0.0000 C   0  0  0  0  0  0  0  0  0  0  0  0
   -3.9912   -2.1454   -0.0000 C   0  0  0  0  0  0  0  0  0  0  0  0
   -5.3216   -2.8645   -0.0000 C   0  0  0  0  0  0  0  0  0  0  0  0
   -5.3575   -4.3508   -0.0000 C   0  0  0  0  0  0  0  0  0  0  0  0
   -6.6640   -5.0699   -0.0000 N   0  0  0  0  0  0  0  0  0  0  0  0
   -4.0631   -5.1178   -0.0000 C   0  0  0  0  0  0  0  0  0  0  0  0
   -7.9704   -4.2908   -0.0000 C   0  0  0  0  0  0  0  0  0  0  0  0
   -4.0991   -6.6040   -0.0000 O   0  0  0  0  0  0  0  0  0  0  0  0
   -2.7687   -4.3747   -0.0000 N   0  0  0  0  0  0  0  0  0  0  0  0
   -7.9704   -2.7926   -0.0000 O   0  0  0  0  0  0  0  0  0  0  0  0
   -9.3128   -5.0219   -0.0000 C   0  0  0  0  0  0  0  0  0  0  0  0
   -1.4982   -5.1298   -0.0000 C   0  0  0  0  0  0  0  0  0  0  0  0
  -10.5952   -4.2549   -0.0000 N   0  0  0  0  0  0  0  0  0  0  0  0
   -9.3367   -6.5201   -0.0000 C   0  0  0  0  0  0  0  0  0  0  0  0
   -0.2038   -4.3867   -0.0000 C   0  0  0  0  0  0  0  0  0  0  0  0
   -1.5222   -6.6160   -0.0000 C   0  0  0  0  0  0  0  0  0  0  0  0
  -10.5952   -2.7207   -0.0000 C   0  0  0  0  0  0  0  0  0  0  0  0
  -10.6671   -7.2393   -0.0000 C   0  0  0  0  0  0  0  0  0  0  0  0
   -0.1918   -2.8765   -0.0000 O   0  0  0  0  0  0  0  0  0  0  0  0
    1.0787   -5.1418   -0.0000 N   0  0  0  0  0  0  0  0  0  0  0  0
   -0.2397   -7.3711   -0.0000 C   0  0  0  0  0  0  0  0  0  0  0  0
   -9.3008   -1.9776   -0.0000 O   0  0  0  0  0  0  0  0  0  0  0  0
  -11.9016   -1.9536   -0.0000 C   0  0  0  0  0  0  0  0  0  0  0  0
  -10.6911   -8.7375   -0.0000 C   0  0  0  0  0  0  0  0  0  0  0  0
  -11.9616   -6.4602   -0.0000 C   0  0  0  0  0  0  0  0  0  0  0  0
    2.3731   -4.3987   -0.0000 C   0  0  0  0  0  0  0  0  0  0  0  0
   -0.2637   -8.8573   -0.0000 C   0  0  0  0  0  0  0  0  0  0  0  0
  -11.8897   -0.4435   -0.0000 N   0  0  0  0  0  0  0  0  0  0  0  0
  -13.2320   -2.6728   -0.0000 C   0  0  0  0  0  0  0  0  0  0  0  0
    3.6556   -5.1538   -0.0000 C   0  0  0  0  0  0  0  0  0  0  0  0
    1.0188   -9.6124   -0.0000 O   0  0  0  0  0  0  0  0  0  0  0  0
   -1.5941   -9.5765   -0.0000 O   0  0  0  0  0  0  0  0  0  0  0  0
  -13.1841    0.3476   -0.0000 C   0  0  0  0  0  0  0  0  0  0  0  0
  -13.2680   -4.1590   -0.0000 S   0  0  0  0  0  0  0  0  0  0  0  0
    3.6196   -6.6520   -0.0000 O   0  0  0  0  0  0  0  0  0  0  0  0
    4.9500   -4.4107   -0.0000 N   0  0  0  0  0  0  0  0  0  0  0  0
  -14.5145   -0.3716   -0.0000 O   0  0  0  0  0  0  0  0  0  0  0  0
  -13.1721    1.8578   -0.0000 C   0  0  0  0  0  0  0  0  0  0  0  0
    6.2325   -5.1658   -0.0000 C   0  0  0  0  0  0  0  0  0  0  0  0
  -14.4905    2.6488   -0.0000 N   0  0  0  0  0  0  0  0  0  0  0  0
  -11.8777    2.6009   -0.0000 C   0  0  0  0  0  0  0  0  0  0  0  0
    7.5269   -4.4227   -0.0000 C   0  0  0  0  0  0  0  0  0  0  0  0
    6.2085   -6.6640   -0.0000 C   0  0  0  0  0  0  0  0  0  0  0  0
  -14.4785    4.1590   -0.0000 C   0  0  0  0  0  0  0  0  0  0  0  0
  -10.5952    1.8458   -0.0000 C   0  0  0  0  0  0  0  0  0  0  0  0
    7.5389   -2.9125   -0.0000 O   0  0  0  0  0  0  0  0  0  0  0  0
    8.8094   -5.1778   -0.0000 N   0  0  0  0  0  0  0  0  0  0  0  0
    7.4790   -7.4191   -0.0000 C   0  0  0  0  0  0  0  0  0  0  0  0
  -13.1721    4.9021   -0.0000 O   0  0  0  0  0  0  0  0  0  0  0  0
  -15.7730    4.9380   -0.0000 C   0  0  0  0  0  0  0  0  0  0  0  0
   -9.3008    2.5889   -0.0000 O   0  0  0  0  0  0  0  0  0  0  0  0
  -10.6192    0.3476   -0.0000 N   0  0  0  0  0  0  0  0  0  0  0  0
   10.1038   -4.4347   -0.0000 C   0  0  0  0  0  0  0  0  0  0  0  0
    7.4550   -8.9172   -0.0000 O   0  0  0  0  0  0  0  0  0  0  0  0
    8.7734   -6.6760   -0.0000 N   0  0  0  0  0  0  0  0  0  0  0  0
  -15.7730    6.4602   -0.0000 N   0  0  0  0  0  0  0  0  0  0  0  0
  -17.1034    4.2189   -0.0000 C   0  0  0  0  0  0  0  0  0  0  0  0
   11.3863   -5.2017   -0.0000 C   0  0  0  0  0  0  0  0  0  0  0  0
   10.0918   -2.9245   -0.0000 C   0  0  0  0  0  0  0  0  0  0  0  0
  -17.0914    7.2393   -0.0000 C   0  0  0  0  0  0  0  0  0  0  0  0
  -17.1513    2.7327   -0.0000 C   0  0  0  0  0  0  0  0  0  0  0  0
   11.3623   -6.6879   -0.0000 O   0  0  0  0  0  0  0  0  0  0  0  0
   12.6807   -4.4586   -0.0000 N   0  0  0  0  0  0  0  0  0  0  0  0
   11.4102   -2.1694   -0.0000 C   0  0  0  0  0  0  0  0  0  0  0  0
  -18.3978    6.5201   -0.0000 O   0  0  0  0  0  0  0  0  0  0  0  0
  -17.0674    8.7614   -0.0000 C   0  0  0  0  0  0  0  0  0  0  0  0
  -15.8689    1.9776   -0.0000 C   0  0  0  0  0  0  0  0  0  0  0  0
  -18.4697    2.0016   -0.0000 C   0  0  0  0  0  0  0  0  0  0  0  0
   13.9751   -5.2017   -0.0000 C   0  0  0  0  0  0  0  0  0  0  0  0
   11.4222   -0.6592   -0.0000 O   0  0  0  0  0  0  0  0  0  0  0  0
   12.6927   -2.9365   -0.0000 O   0  0  0  0  0  0  0  0  0  0  0  0
  -18.3858    9.5405   -0.0000 N   0  0  0  0  0  0  0  0  0  0  0  0
  -15.7730    9.5045   -0.0000 C   0  0  0  0  0  0  0  0  0  0  0  0
  -15.8928    0.4794   -0.0000 C   0  0  0  0  0  0  0  0  0  0  0  0
  -18.5177    0.5274   -0.0000 C   0  0  0  0  0  0  0  0  0  0  0  0
   15.2696   -4.4586   -0.0000 C   0  0  0  0  0  0  0  0  0  0  0  0
   13.9272   -6.7119   -0.0000 C   0  0  0  0  0  0  0  0  0  0  0  0
  -18.3738   11.0627   -0.0000 C   0  0  0  0  0  0  0  0  0  0  0  0
  -14.4905    8.7495   -0.0000 C   0  0  0  0  0  0  0  0  0  0  0  0
  -17.2352   -0.2277   -0.0000 C   0  0  0  0  0  0  0  0  0  0  0  0
   15.2816   -2.9484   -0.0000 O   0  0  0  0  0  0  0  0  0  0  0  0
   16.5520   -5.2137   -0.0000 N   0  0  0  0  0  0  0  0  0  0  0  0
   15.2097   -7.4550   -0.0000 C   0  0  0  0  0  0  0  0  0  0  0  0
  -17.0794   11.8058   -0.0000 O   0  0  0  0  0  0  0  0  0  0  0  0
  -19.6803   11.8417   -0.0000 C   0  0  0  0  0  0  0  0  0  0  0  0
  -13.1961    9.4926   -0.0000 C   0  0  0  0  0  0  0  0  0  0  0  0
  -14.5145    7.2393   -0.0000 C   0  0  0  0  0  0  0  0  0  0  0  0
   17.8585   -4.4706   -0.0000 C   0  0  0  0  0  0  0  0  0  0  0  0
   15.1857   -8.9532   -0.0000 C   0  0  0  0  0  0  0  0  0  0  0  0
  -19.6683   13.3639   -0.0000 N   0  0  0  0  0  0  0  0  0  0  0  0
  -21.0107   11.1226   -0.0000 C   0  0  0  0  0  0  0  0  0  0  0  0
  -11.9136    8.7255   -0.0000 C   0  0  0  0  0  0  0  0  0  0  0  0
  -13.2440    6.4842   -0.0000 C   0  0  0  0  0  0  0  0  0  0  0  0
   19.1289   -5.2257   -0.0000 C   0  0  0  0  0  0  0  0  0  0  0  0
   17.8585   -2.9604   -0.0000 C   0  0  0  0  0  0  0  0  0  0  0  0
   16.4681   -9.6963   -0.0000 O   0  0  0  0  0  0  0  0  0  0  0  0
   13.8673   -9.6723   -0.0000 O   0  0  0  0  0  0  0  0  0  0  0  0
  -20.9867   14.1429   -0.0000 C   0  0  0  0  0  0  0  0  0  0  0  0
  -21.0346    9.6364   -0.0000 S   0  0  0  0  0  0  0  0  0  0  0  0
  -11.9496    7.2273   -0.0000 C   0  0  0  0  0  0  0  0  0  0  0  0
   19.1050   -6.7239   -0.0000 O   0  0  0  0  0  0  0  0  0  0  0  0
   20.4354   -4.4826   -0.0000 N   0  0  0  0  0  0  0  0  0  0  0  0
   19.1529   -2.2173   -0.0000 C   0  0  0  0  0  0  0  0  0  0  0  0
  -22.3171   13.4238   -0.0000 O   0  0  0  0  0  0  0  0  0  0  0  0
  -20.9747   15.6651   -0.0000 C   0  0  0  0  0  0  0  0  0  0  0  0
  -10.6671    6.4722   -0.0000 O   0  0  0  0  0  0  0  0  0  0  0  0
   21.7178   -5.2377   -0.0000 C   0  0  0  0  0  0  0  0  0  0  0  0
   19.1649   -0.7071   -0.0000 C   0  0  0  0  0  0  0  0  0  0  0  0
  -22.2811   16.4442   -0.0000 N   0  0  0  0  0  0  0  0  0  0  0  0
  -19.6683   16.4082   -0.0000 C   0  0  0  0  0  0  0  0  0  0  0  0
   23.0242   -4.4946   -0.0000 C   0  0  0  0  0  0  0  0  0  0  0  0
   21.6819   -6.7239   -0.0000 C   0  0  0  0  0  0  0  0  0  0  0  0
   20.4593    0.0360   -0.0000 O   0  0  0  0  0  0  0  0  0  0  0  0
   17.8585    0.0719   -0.0000 O   0  0  0  0  0  0  0  0  0  0  0  0
   23.0242   -2.9844   -0.0000 O   0  0  0  0  0  0  0  0  0  0  0  0
   24.3067   -5.2497   -0.0000 N   0  0  0  0  0  0  0  0  0  0  0  0
   22.9643   -7.4790   -0.0000 O   0  0  0  0  0  0  0  0  0  0  0  0
   20.3515   -7.4550   -0.0000 C   0  0  0  0  0  0  0  0  0  0  0  0
   25.6011   -4.5066   -0.0000 C   0  0  0  0  0  0  0  0  0  0  0  0
   26.8956   -5.2617   -0.0000 C   0  0  0  0  0  0  0  0  0  0  0  0
   25.6131   -2.9964   -0.0000 C   0  0  0  0  0  0  0  0  0  0  0  0
   26.8596   -6.7598   -0.0000 O   0  0  0  0  0  0  0  0  0  0  0  0
   28.1900   -4.5186   -0.0000 N   0  0  0  0  0  0  0  0  0  0  0  0
   26.9195   -2.2413   -0.0000 S   0  0  0  0  0  0  0  0  0  0  0  0
   29.4725   -5.2736   -0.0000 C   0  0  0  0  0  0  0  0  0  0  0  0
   30.7789   -4.5186   -0.0000 C   0  0  0  0  0  0  0  0  0  0  0  0
   29.4365   -6.7598   -0.0000 C   0  0  0  0  0  0  0  0  0  0  0  0
   30.7909   -2.9964   -0.0000 O   0  0  0  0  0  0  0  0  0  0  0  0
   32.0613   -5.2736   -0.0000 N   0  0  0  0  0  0  0  0  0  0  0  0
   30.7190   -7.5149   -0.0000 C   0  0  0  0  0  0  0  0  0  0  0  0
   33.3558   -4.5305   -0.0000 C   0  0  0  0  0  0  0  0  0  0  0  0
   30.6830   -9.0011   -0.0000 C   0  0  0  0  0  0  0  0  0  0  0  0
   34.6382   -5.2976   -0.0000 C   0  0  0  0  0  0  0  0  0  0  0  0
   33.3558   -3.0204   -0.0000 C   0  0  0  0  0  0  0  0  0  0  0  0
   31.9655   -9.7562   -0.0000 C   0  0  0  0  0  0  0  0  0  0  0  0
   34.6143   -6.7838   -0.0000 O   0  0  0  0  0  0  0  0  0  0  0  0
   35.9327   -4.5545   -0.0000 N   0  0  0  0  0  0  0  0  0  0  0  0
   34.6622   -2.2773   -0.0000 C   0  0  0  0  0  0  0  0  0  0  0  0
   31.9175  -11.2544   -0.0000 N   0  0  0  0  0  0  0  0  0  0  0  0
   37.2151   -5.3096   -0.0000 C   0  0  0  0  0  0  0  0  0  0  0  0
   34.6742   -0.7551   -0.0000 C   0  0  0  0  0  0  0  0  0  0  0  0
   38.5096   -4.5665   -0.0000 C   0  0  0  0  0  0  0  0  0  0  0  0
   37.1792   -6.8078   -0.0000 C   0  0  0  0  0  0  0  0  0  0  0  0
   35.9806   -0.0120   -0.0000 O   0  0  0  0  0  0  0  0  0  0  0  0
   33.3678    0.0240   -0.0000 O   0  0  0  0  0  0  0  0  0  0  0  0
   38.5096   -3.0563   -0.0000 O   0  0  0  0  0  0  0  0  0  0  0  0
   39.7920   -5.3216   -0.0000 N   0  0  0  0  0  0  0  0  0  0  0  0
   38.4616   -7.5629   -0.0000 C   0  0  0  0  0  0  0  0  0  0  0  0
   41.0865   -4.5785   -0.0000 C   0  0  0  0  0  0  0  0  0  0  0  0
   38.5815   -9.0491   -0.0000 C   0  0  0  0  0  0  0  0  0  0  0  0
   39.8280   -6.9636   -0.0000 C   0  0  0  0  0  0  0  0  0  0  0  0
   42.3689   -5.3456   -0.0000 C   0  0  0  0  0  0  0  0  0  0  0  0
   41.0865   -3.0683   -0.0000 C   0  0  0  0  0  0  0  0  0  0  0  0
   40.0317   -9.3727   -0.0000 C   0  0  0  0  0  0  0  0  0  0  0  0
   37.5507  -10.1398   -0.0000 C   0  0  0  0  0  0  0  0  0  0  0  0
   40.7988   -8.0783   -0.0000 N   0  0  0  0  0  0  0  0  0  0  0  0
   42.3449   -6.8318   -0.0000 O   0  0  0  0  0  0  0  0  0  0  0  0
   43.6634   -4.6025   -0.0000 O   0  0  0  0  0  0  0  0  0  0  0  0
   42.3929   -2.3252   -0.0000 S   0  0  0  0  0  0  0  0  0  0  0  0
   40.4632  -10.7990   -0.0000 C   0  0  0  0  0  0  0  0  0  0  0  0
   37.9822  -11.5661   -0.0000 C   0  0  0  0  0  0  0  0  0  0  0  0
   39.4325  -11.8897   -0.0000 C   0  0  0  0  0  0  0  0  0  0  0  0
  1  2  1  0  0  0  0
  2  3  2  0  0  0  0
  2  4  1  0  0  0  0
  3  5  1  0  0  0  0
  4  6  2  0  0  0  0
  5  7  2  0  0  0  0
  7  8  1  0  0  0  0
  8  9  1  0  0  0  0
  9 10  1  1  0  0  0
  9 11  1  0  0  0  0
 10 12  1  0  0  0  0
 11 13  2  0  0  0  0
 11 14  1  0  0  0  0
 12 15  2  0  0  0  0
 12 16  1  0  0  0  0
 17 14  1  6  0  0  0
 16 18  1  6  0  0  0
 16 19  1  0  0  0  0
 17 20  1  0  0  0  0
 17 21  1  0  0  0  0
 18 22  1  0  0  0  0
 19 23  1  0  0  0  0
 20 24  2  0  0  0  0
 20 25  1  0  0  0  0
 21 26  1  0  0  0  0
 22 27  2  0  0  0  0
 22 28  1  0  0  0  0
 23 29  1  0  0  0  0
 23 30  1  0  0  0  0
 25 31  1  0  0  0  0
 26 32  1  0  0  0  0
 28 33  1  6  0  0  0
 28 34  1  0  0  0  0
 31 35  1  0  0  0  0
 32 36  2  0  0  0  0
 32 37  1  0  0  0  0
 33 38  1  0  0  0  0
 34 39  1  0  0  0  0
 35 40  2  0  0  0  0
 35 41  1  0  0  0  0
 38 42  2  0  0  0  0
 38 43  1  0  0  0  0
 44 41  1  6  0  0  0
 43 45  1  1  0  0  0
 43 46  1  0  0  0  0
 44 47  1  0  0  0  0
 44 48  1  0  0  0  0
 45 49  1  0  0  0  0
 46 50  1  0  0  0  0
 47 51  2  0  0  0  0
 47 52  1  0  0  0  0
 48 53  1  0  0  0  0
 49 54  2  0  0  0  0
 49 55  1  0  0  0  0
 50 56  2  0  0  0  0
 50 57  1  0  0  0  0
 58 52  1  1  0  0  0
 53 59  2  0  0  0  0
 53 60  1  0  0  0  0
 55 61  1  6  0  0  0
 55 62  1  0  0  0  0
 58 63  1  0  0  0  0
 58 64  1  0  0  0  0
 61 65  1  0  0  0  0
 62 66  1  0  0  0  0
 63 67  2  0  0  0  0
 63 68  1  0  0  0  0
 64 69  1  0  0  0  0
 65 70  2  0  0  0  0
 65 71  1  0  0  0  0
 66 72  2  0  0  0  0
 66 73  1  0  0  0  0
 74 68  1  6  0  0  0
 69 75  2  0  0  0  0
 69 76  1  0  0  0  0
 71 77  1  1  0  0  0
 71 78  1  0  0  0  0
 72 79  1  0  0  0  0
 73 80  2  0  0  0  0
 74 81  1  0  0  0  0
 74 82  1  0  0  0  0
 77 83  1  0  0  0  0
 78 84  1  0  0  0  0
 79 85  2  0  0  0  0
 81 86  2  0  0  0  0
 81 87  1  0  0  0  0
 82 88  1  0  0  0  0
 83 89  2  0  0  0  0
 83 90  1  0  0  0  0
 84 91  2  0  0  0  0
 84 92  1  0  0  0  0
 93 87  1  1  0  0  0
 88 94  1  0  0  0  0
 90 95  1  6  0  0  0
 90 96  1  0  0  0  0
 91 97  1  0  0  0  0
 92 98  2  0  0  0  0
 93 99  1  0  0  0  0
 93100  1  0  0  0  0
 94101  2  0  0  0  0
 94102  1  0  0  0  0
 95103  1  0  0  0  0
 96104  1  0  0  0  0
 97105  2  0  0  0  0
 99106  2  0  0  0  0
 99107  1  0  0  0  0
100108  1  0  0  0  0
103109  2  0  0  0  0
103110  1  0  0  0  0
105111  1  0  0  0  0
112107  1  6  0  0  0
108113  1  0  0  0  0
110114  1  1  0  0  0
110115  1  0  0  0  0
112116  1  0  0  0  0
112117  1  0  0  0  0
113118  2  0  0  0  0
113119  1  0  0  0  0
116120  2  0  0  0  0
116121  1  0  0  0  0
117122  1  6  0  0  0
117123  1  0  0  0  0
124121  1  1  0  0  0
124125  1  0  0  0  0
124126  1  0  0  0  0
125127  2  0  0  0  0
125128  1  0  0  0  0
126129  1  0  0  0  0
130128  1  6  0  0  0
130131  1  0  0  0  0
130132  1  0  0  0  0
131133  2  0  0  0  0
131134  1  0  0  0  0
132135  1  0  0  0  0
136134  1  1  0  0  0
135137  1  0  0  0  0
136138  1  0  0  0  0
136139  1  0  0  0  0
137140  1  0  0  0  0
138141  2  0  0  0  0
138142  1  0  0  0  0
139143  1  0  0  0  0
140144  1  0  0  0  0
145142  1  6  0  0  0
143146  1  0  0  0  0
145147  1  0  0  0  0
145148  1  0  0  0  0
146149  2  0  0  0  0
146150  1  0  0  0  0
147151  2  0  0  0  0
147152  1  0  0  0  0
148153  1  0  0  0  0
154152  1  1  0  0  0
153155  1  0  0  0  0
153156  2  0  0  0  0
154157  1  0  0  0  0
154158  1  0  0  0  0
155159  2  0  0  0  0
155160  1  0  0  0  0
156161  1  0  0  0  0
157162  2  0  0  0  0
157163  1  0  0  0  0
158164  1  0  0  0  0
159165  1  0  0  0  0
160166  2  0  0  0  0
165167  2  0  0  0  0
  6  7  1  0  0  0  0
 80 85  1  0  0  0  0
 98105  1  0  0  0  0
159161  1  0  0  0  0
166167  1  0  0  0  0
M  END
>  <MolRegNo>
1625066

>  <m>
=

>  <Value>
600

>  <Unit>
nM

>  <Type>
Ki

>  <pValue>
6.22

>  <Ligand Efficiency>
0

>  <Binding Efficiency>
2.55

>  <Surface Efficiency>
0

>  <Assay Index>
831551

>  <Assay Category>


>  <Assay Organism>
Homo sapiens

>  <Target ID>
56

>  <Target Name>
Androgen Receptor

>  <Target Organism>
Homo sapiens

>  <Target Description>
Target is a single protein chain

>  <Sequence Accession>
P10275

>  <Reference>
Medchemcomm 4 (1), 187-192 (2013)

>  <Pubmed ID>


>  <DOI>
10.1039/C2MD20182H

$$$$
1625065
Actelion Java MolfileCreator 1.0

167171  0  0  0  0  0  0  0  0999 V2000
    0.0000   -0.0000   -0.0000 Cl  0  0  0  0  0  0  0  0  0  0  0  0
   -1.3534   -0.6707   -0.0000 C   0  0  0  0  0  0  0  0  0  0  0  0
   -1.4492   -2.1678   -0.0000 C   0  0  0  0  0  0  0  0  0  0  0  0
   -2.6229    0.1557   -0.0000 C   0  0  0  0  0  0  0  0  0  0  0  0
   -2.8026   -2.8265   -0.0000 C   0  0  0  0  0  0  0  0  0  0  0  0
   -3.9763   -0.5150   -0.0000 C   0  0  0  0  0  0  0  0  0  0  0  0
   -4.0721   -1.9882   -0.0000 C   0  0  0  0  0  0  0  0  0  0  0  0
   -5.4375   -2.6589   -0.0000 C   0  0  0  0  0  0  0  0  0  0  0  0
   -5.5213   -4.1560   -0.0000 C   0  0  0  0  0  0  0  0  0  0  0  0
   -6.8747   -4.8267   -0.0000 N   0  0  0  0  0  0  0  0  0  0  0  0
   -4.2757   -4.9584   -0.0000 C   0  0  0  0  0  0  0  0  0  0  0  0
   -8.1562   -3.9883   -0.0000 C   0  0  0  0  0  0  0  0  0  0  0  0
   -4.3596   -6.4555   -0.0000 O   0  0  0  0  0  0  0  0  0  0  0  0
   -2.9463   -4.2638   -0.0000 N   0  0  0  0  0  0  0  0  0  0  0  0
   -8.0844   -2.4912   -0.0000 O   0  0  0  0  0  0  0  0  0  0  0  0
   -9.5096   -4.6590   -0.0000 C   0  0  0  0  0  0  0  0  0  0  0  0
   -1.7007   -5.0782   -0.0000 C   0  0  0  0  0  0  0  0  0  0  0  0
  -10.7792   -3.8326   -0.0000 N   0  0  0  0  0  0  0  0  0  0  0  0
   -9.5934   -6.1681   -0.0000 C   0  0  0  0  0  0  0  0  0  0  0  0
   -0.3713   -4.3835   -0.0000 C   0  0  0  0  0  0  0  0  0  0  0  0
   -1.7845   -6.5753   -0.0000 C   0  0  0  0  0  0  0  0  0  0  0  0
  -12.1325   -4.5033   -0.0000 C   0  0  0  0  0  0  0  0  0  0  0  0
   -8.3598   -6.9585   -0.0000 C   0  0  0  0  0  0  0  0  0  0  0  0
   -0.3114   -2.8625   -0.0000 O   0  0  0  0  0  0  0  0  0  0  0  0
    0.8743   -5.1860   -0.0000 N   0  0  0  0  0  0  0  0  0  0  0  0
   -0.5390   -7.3897   -0.0000 C   0  0  0  0  0  0  0  0  0  0  0  0
  -12.2284   -5.9884   -0.0000 O   0  0  0  0  0  0  0  0  0  0  0  0
  -13.4141   -3.6769   -0.0000 C   0  0  0  0  0  0  0  0  0  0  0  0
   -7.0304   -6.2759   -0.0000 C   0  0  0  0  0  0  0  0  0  0  0  0
   -8.4437   -8.4556   -0.0000 C   0  0  0  0  0  0  0  0  0  0  0  0
    2.2037   -4.4913   -0.0000 C   0  0  0  0  0  0  0  0  0  0  0  0
   -0.6228   -8.8868   -0.0000 O   0  0  0  0  0  0  0  0  0  0  0  0
    0.7785   -6.6951   -0.0000 N   0  0  0  0  0  0  0  0  0  0  0  0
  -14.7674   -4.3476   -0.0000 N   0  0  0  0  0  0  0  0  0  0  0  0
  -13.3422   -2.1558   -0.0000 C   0  0  0  0  0  0  0  0  0  0  0  0
   -5.7728   -7.0903   -0.0000 C   0  0  0  0  0  0  0  0  0  0  0  0
   -7.1981   -9.2581   -0.0000 C   0  0  0  0  0  0  0  0  0  0  0  0
    3.4613   -5.2938   -0.0000 C   0  0  0  0  0  0  0  0  0  0  0  0
    2.2636   -2.9822   -0.0000 C   0  0  0  0  0  0  0  0  0  0  0  0
  -16.0490   -3.5212   -0.0000 C   0  0  0  0  0  0  0  0  0  0  0  0
  -12.0128   -1.4612   -0.0000 S   0  0  0  0  0  0  0  0  0  0  0  0
   -5.8806   -8.5634   -0.0000 C   0  0  0  0  0  0  0  0  0  0  0  0
    3.3775   -6.8028   -0.0000 O   0  0  0  0  0  0  0  0  0  0  0  0
    4.7907   -4.5991   -0.0000 N   0  0  0  0  0  0  0  0  0  0  0  0
    3.6050   -2.2876   -0.0000 S   0  0  0  0  0  0  0  0  0  0  0  0
  -15.9891   -2.0001   -0.0000 O   0  0  0  0  0  0  0  0  0  0  0  0
  -17.4023   -4.1919   -0.0000 C   0  0  0  0  0  0  0  0  0  0  0  0
   -4.6231   -9.3779   -0.0000 O   0  0  0  0  0  0  0  0  0  0  0  0
    6.0483   -5.4135   -0.0000 C   0  0  0  0  0  0  0  0  0  0  0  0
  -18.6839   -3.3535   -0.0000 N   0  0  0  0  0  0  0  0  0  0  0  0
  -17.4862   -5.6770   -0.0000 C   0  0  0  0  0  0  0  0  0  0  0  0
    7.3658   -4.7189   -0.0000 C   0  0  0  0  0  0  0  0  0  0  0  0
    5.9525   -6.8987   -0.0000 C   0  0  0  0  0  0  0  0  0  0  0  0
    7.4256   -3.1978   -0.0000 O   0  0  0  0  0  0  0  0  0  0  0  0
    8.6113   -5.5213   -0.0000 N   0  0  0  0  0  0  0  0  0  0  0  0
    7.1981   -7.7011   -0.0000 C   0  0  0  0  0  0  0  0  0  0  0  0
    9.9288   -4.8267   -0.0000 C   0  0  0  0  0  0  0  0  0  0  0  0
    7.1142   -9.2102   -0.0000 C   0  0  0  0  0  0  0  0  0  0  0  0
    8.5155   -7.0065   -0.0000 C   0  0  0  0  0  0  0  0  0  0  0  0
   11.1864   -5.6411   -0.0000 C   0  0  0  0  0  0  0  0  0  0  0  0
    9.9887   -3.3176   -0.0000 C   0  0  0  0  0  0  0  0  0  0  0  0
   11.1145   -7.1262   -0.0000 O   0  0  0  0  0  0  0  0  0  0  0  0
   12.5278   -4.9464   -0.0000 N   0  0  0  0  0  0  0  0  0  0  0  0
   11.3181   -2.6229   -0.0000 C   0  0  0  0  0  0  0  0  0  0  0  0
   13.7853   -5.7489   -0.0000 C   0  0  0  0  0  0  0  0  0  0  0  0
   12.5757   -3.4374   -0.0000 C   0  0  0  0  0  0  0  0  0  0  0  0
   11.3900   -1.1138   -0.0000 C   0  0  0  0  0  0  0  0  0  0  0  0
   15.1148   -5.0542   -0.0000 C   0  0  0  0  0  0  0  0  0  0  0  0
   13.7015   -7.2460   -0.0000 C   0  0  0  0  0  0  0  0  0  0  0  0
   13.9171   -2.7427   -0.0000 C   0  0  0  0  0  0  0  0  0  0  0  0
   12.7194   -0.4192   -0.0000 C   0  0  0  0  0  0  0  0  0  0  0  0
   15.1627   -3.5571   -0.0000 O   0  0  0  0  0  0  0  0  0  0  0  0
   16.3723   -5.8687   -0.0000 N   0  0  0  0  0  0  0  0  0  0  0  0
   14.9591   -8.0484   -0.0000 C   0  0  0  0  0  0  0  0  0  0  0  0
   13.9889   -1.2336   -0.0000 C   0  0  0  0  0  0  0  0  0  0  0  0
   17.6898   -5.1740   -0.0000 C   0  0  0  0  0  0  0  0  0  0  0  0
   14.8513   -9.5455   -0.0000 C   0  0  0  0  0  0  0  0  0  0  0  0
   18.9474   -5.9764   -0.0000 C   0  0  0  0  0  0  0  0  0  0  0  0
   16.1088  -10.3600   -0.0000 O   0  0  0  0  0  0  0  0  0  0  0  0
   13.4979  -10.2162   -0.0000 O   0  0  0  0  0  0  0  0  0  0  0  0
   18.8515   -7.4616   -0.0000 O   0  0  0  0  0  0  0  0  0  0  0  0
   20.2648   -5.2818   -0.0000 N   0  0  0  0  0  0  0  0  0  0  0  0
   21.5104   -6.0842   -0.0000 C   0  0  0  0  0  0  0  0  0  0  0  0
   22.8398   -5.3896   -0.0000 C   0  0  0  0  0  0  0  0  0  0  0  0
   21.4146   -7.5813   -0.0000 C   0  0  0  0  0  0  0  0  0  0  0  0
   22.8997   -3.8805   -0.0000 O   0  0  0  0  0  0  0  0  0  0  0  0
   24.0854   -6.2040   -0.0000 N   0  0  0  0  0  0  0  0  0  0  0  0
   22.6722   -8.3838   -0.0000 C   0  0  0  0  0  0  0  0  0  0  0  0
   25.4268   -5.4974   -0.0000 C   0  0  0  0  0  0  0  0  0  0  0  0
   22.5763   -9.8809   -0.0000 O   0  0  0  0  0  0  0  0  0  0  0  0
   24.0016   -7.6891   -0.0000 N   0  0  0  0  0  0  0  0  0  0  0  0
   26.6724   -6.2998   -0.0000 C   0  0  0  0  0  0  0  0  0  0  0  0
   25.4987   -3.9883   -0.0000 C   0  0  0  0  0  0  0  0  0  0  0  0
   26.6006   -7.8089   -0.0000 O   0  0  0  0  0  0  0  0  0  0  0  0
   28.0019   -5.6052   -0.0000 N   0  0  0  0  0  0  0  0  0  0  0  0
   26.8281   -3.2936   -0.0000 C   0  0  0  0  0  0  0  0  0  0  0  0
   29.2594   -6.4316   -0.0000 C   0  0  0  0  0  0  0  0  0  0  0  0
   26.9000   -1.7726   -0.0000 O   0  0  0  0  0  0  0  0  0  0  0  0
   28.0857   -4.0961   -0.0000 O   0  0  0  0  0  0  0  0  0  0  0  0
   30.5769   -5.7369   -0.0000 C   0  0  0  0  0  0  0  0  0  0  0  0
   29.1636   -7.9287   -0.0000 C   0  0  0  0  0  0  0  0  0  0  0  0
   30.6368   -4.2278   -0.0000 O   0  0  0  0  0  0  0  0  0  0  0  0
   31.8344   -6.5394   -0.0000 N   0  0  0  0  0  0  0  0  0  0  0  0
   30.3972   -8.7311   -0.0000 C   0  0  0  0  0  0  0  0  0  0  0  0
   33.1519   -5.8447   -0.0000 C   0  0  0  0  0  0  0  0  0  0  0  0
   30.3134  -10.2402   -0.0000 C   0  0  0  0  0  0  0  0  0  0  0  0
   34.3975   -6.6471   -0.0000 C   0  0  0  0  0  0  0  0  0  0  0  0
   33.2238   -4.3236   -0.0000 C   0  0  0  0  0  0  0  0  0  0  0  0
   31.5590  -11.0307   -0.0000 O   0  0  0  0  0  0  0  0  0  0  0  0
   28.9600  -10.9109   -0.0000 O   0  0  0  0  0  0  0  0  0  0  0  0
   34.3017   -8.1443   -0.0000 O   0  0  0  0  0  0  0  0  0  0  0  0
   35.7389   -5.9405   -0.0000 N   0  0  0  0  0  0  0  0  0  0  0  0
   34.5652   -3.6170   -0.0000 C   0  0  0  0  0  0  0  0  0  0  0  0
   36.9965   -6.7430   -0.0000 C   0  0  0  0  0  0  0  0  0  0  0  0
   34.6370   -2.1199   -0.0000 C   0  0  0  0  0  0  0  0  0  0  0  0
   38.3259   -6.0483   -0.0000 C   0  0  0  0  0  0  0  0  0  0  0  0
   36.9126   -8.2401   -0.0000 C   0  0  0  0  0  0  0  0  0  0  0  0
   35.9665   -1.4252   -0.0000 O   0  0  0  0  0  0  0  0  0  0  0  0
   33.3555   -1.2815   -0.0000 O   0  0  0  0  0  0  0  0  0  0  0  0
   38.3858   -4.5392   -0.0000 O   0  0  0  0  0  0  0  0  0  0  0  0
   39.5835   -6.8627   -0.0000 N   0  0  0  0  0  0  0  0  0  0  0  0
   38.1582   -9.0425   -0.0000 O   0  0  0  0  0  0  0  0  0  0  0  0
   35.5592   -8.9108   -0.0000 C   0  0  0  0  0  0  0  0  0  0  0  0
   40.9129   -6.1681   -0.0000 C   0  0  0  0  0  0  0  0  0  0  0  0
   42.1705   -6.9705   -0.0000 C   0  0  0  0  0  0  0  0  0  0  0  0
   40.9847   -4.6470   -0.0000 C   0  0  0  0  0  0  0  0  0  0  0  0
   42.0746   -8.4556   -0.0000 O   0  0  0  0  0  0  0  0  0  0  0  0
   43.4999   -6.2759   -0.0000 N   0  0  0  0  0  0  0  0  0  0  0  0
   42.3142   -3.9524   -0.0000 S   0  0  0  0  0  0  0  0  0  0  0  0
   44.7455   -7.0663   -0.0000 C   0  0  0  0  0  0  0  0  0  0  0  0
   46.0749   -6.3717   -0.0000 C   0  0  0  0  0  0  0  0  0  0  0  0
   44.6497   -8.5634   -0.0000 C   0  0  0  0  0  0  0  0  0  0  0  0
   46.1348   -4.8626   -0.0000 O   0  0  0  0  0  0  0  0  0  0  0  0
   47.3205   -7.1861   -0.0000 N   0  0  0  0  0  0  0  0  0  0  0  0
   45.8953   -9.3779   -0.0000 C   0  0  0  0  0  0  0  0  0  0  0  0
   48.6499   -6.4914   -0.0000 C   0  0  0  0  0  0  0  0  0  0  0  0
   45.8114  -10.8630   -0.0000 C   0  0  0  0  0  0  0  0  0  0  0  0
   49.9075   -7.3059   -0.0000 C   0  0  0  0  0  0  0  0  0  0  0  0
   48.7218   -4.9824   -0.0000 C   0  0  0  0  0  0  0  0  0  0  0  0
   47.0570  -11.6774   -0.0000 C   0  0  0  0  0  0  0  0  0  0  0  0
   49.8117   -8.8030   -0.0000 O   0  0  0  0  0  0  0  0  0  0  0  0
   51.2369   -6.6112   -0.0000 N   0  0  0  0  0  0  0  0  0  0  0  0
   50.0512   -4.2877   -0.0000 C   0  0  0  0  0  0  0  0  0  0  0  0
   46.9732  -13.1625   -0.0000 N   0  0  0  0  0  0  0  0  0  0  0  0
   52.4825   -7.4137   -0.0000 C   0  0  0  0  0  0  0  0  0  0  0  0
   50.1111   -2.7786   -0.0000 C   0  0  0  0  0  0  0  0  0  0  0  0
   53.8119   -6.7190   -0.0000 C   0  0  0  0  0  0  0  0  0  0  0  0
   52.3987   -8.9108   -0.0000 C   0  0  0  0  0  0  0  0  0  0  0  0
   51.4525   -2.0720   -0.0000 O   0  0  0  0  0  0  0  0  0  0  0  0
   48.8535   -1.9642   -0.0000 O   0  0  0  0  0  0  0  0  0  0  0  0
   53.8718   -5.2099   -0.0000 O   0  0  0  0  0  0  0  0  0  0  0  0
   55.0575   -7.5334   -0.0000 N   0  0  0  0  0  0  0  0  0  0  0  0
   53.6443   -9.7132   -0.0000 C   0  0  0  0  0  0  0  0  0  0  0  0
   56.3870   -6.8388   -0.0000 C   0  0  0  0  0  0  0  0  0  0  0  0
   53.7161  -11.2103   -0.0000 C   0  0  0  0  0  0  0  0  0  0  0  0
   55.0336   -9.1623   -0.0000 C   0  0  0  0  0  0  0  0  0  0  0  0
   57.6445   -7.6412   -0.0000 C   0  0  0  0  0  0  0  0  0  0  0  0
   56.4588   -5.3177   -0.0000 C   0  0  0  0  0  0  0  0  0  0  0  0
   55.1533  -11.5936   -0.0000 C   0  0  0  0  0  0  0  0  0  0  0  0
   52.6382  -12.2643   -0.0000 C   0  0  0  0  0  0  0  0  0  0  0  0
   55.9678  -10.3240   -0.0000 N   0  0  0  0  0  0  0  0  0  0  0  0
   57.5487   -9.1383   -0.0000 O   0  0  0  0  0  0  0  0  0  0  0  0
   58.9740   -6.9466   -0.0000 O   0  0  0  0  0  0  0  0  0  0  0  0
   57.7883   -4.6231   -0.0000 S   0  0  0  0  0  0  0  0  0  0  0  0
   55.5246  -13.0308   -0.0000 C   0  0  0  0  0  0  0  0  0  0  0  0
   53.0095  -13.7015   -0.0000 C   0  0  0  0  0  0  0  0  0  0  0  0
   54.4467  -14.0848   -0.0000 C   0  0  0  0  0  0  0  0  0  0  0  0
  1  2  1  0  0  0  0
  2  3  2  0  0  0  0
  2  4  1  0  0  0  0
  3  5  1  0  0  0  0
  4  6  2  0  0  0  0
  5  7  2  0  0  0  0
  7  8  1  0  0  0  0
  8  9  1  0  0  0  0
  9 10  1  1  0  0  0
  9 11  1  0  0  0  0
 10 12  1  0  0  0  0
 11 13  2  0  0  0  0
 11 14  1  0  0  0  0
 12 15  2  0  0  0  0
 12 16  1  0  0  0  0
 17 14  1  6  0  0  0
 16 18  1  6  0  0  0
 16 19  1  0  0  0  0
 17 20  1  0  0  0  0
 17 21  1  0  0  0  0
 18 22  1  0  0  0  0
 19 23  1  0  0  0  0
 20 24  2  0  0  0  0
 20 25  1  0  0  0  0
 21 26  1  0  0  0  0
 22 27  2  0  0  0  0
 22 28  1  0  0  0  0
 23 29  2  0  0  0  0
 23 30  1  0  0  0  0
 31 25  1  1  0  0  0
 26 32  2  0  0  0  0
 26 33  1  0  0  0  0
 28 34  1  1  0  0  0
 28 35  1  0  0  0  0
 29 36  1  0  0  0  0
 30 37  2  0  0  0  0
 31 38  1  0  0  0  0
 31 39  1  0  0  0  0
 34 40  1  0  0  0  0
 35 41  1  0  0  0  0
 36 42  2  0  0  0  0
 38 43  2  0  0  0  0
 38 44  1  0  0  0  0
 39 45  1  0  0  0  0
 40 46  2  0  0  0  0
 40 47  1  0  0  0  0
 42 48  1  0  0  0  0
 49 44  1  6  0  0  0
 47 50  1  6  0  0  0
 47 51  1  0  0  0  0
 49 52  1  0  0  0  0
 49 53  1  0  0  0  0
 52 54  2  0  0  0  0
 52 55  1  0  0  0  0
 53 56  1  0  0  0  0
 57 55  1  1  0  0  0
 56 58  1  0  0  0  0
 56 59  1  0  0  0  0
 57 60  1  0  0  0  0
 57 61  1  0  0  0  0
 60 62  2  0  0  0  0
 60 63  1  0  0  0  0
 61 64  1  0  0  0  0
 65 63  1  6  0  0  0
 64 66  2  0  0  0  0
 64 67  1  0  0  0  0
 65 68  1  0  0  0  0
 65 69  1  0  0  0  0
 66 70  1  0  0  0  0
 67 71  2  0  0  0  0
 68 72  2  0  0  0  0
 68 73  1  0  0  0  0
 69 74  1  0  0  0  0
 70 75  2  0  0  0  0
 73 76  1  0  0  0  0
 74 77  1  0  0  0  0
 76 78  1  0  0  0  0
 77 79  2  0  0  0  0
 77 80  1  0  0  0  0
 78 81  2  0  0  0  0
 78 82  1  0  0  0  0
 83 82  1  6  0  0  0
 83 84  1  0  0  0  0
 83 85  1  0  0  0  0
 84 86  2  0  0  0  0
 84 87  1  0  0  0  0
 85 88  1  0  0  0  0
 89 87  1  1  0  0  0
 88 90  2  0  0  0  0
 88 91  1  0  0  0  0
 89 92  1  0  0  0  0
 89 93  1  0  0  0  0
 92 94  2  0  0  0  0
 92 95  1  0  0  0  0
 93 96  1  0  0  0  0
 97 95  1  6  0  0  0
 96 98  2  0  0  0  0
 96 99  1  0  0  0  0
 97100  1  0  0  0  0
 97101  1  0  0  0  0
100102  2  0  0  0  0
100103  1  0  0  0  0
101104  1  0  0  0  0
105103  1  1  0  0  0
104106  1  0  0  0  0
105107  1  0  0  0  0
105108  1  0  0  0  0
106109  2  0  0  0  0
106110  1  0  0  0  0
107111  2  0  0  0  0
107112  1  0  0  0  0
108113  1  0  0  0  0
114112  1  6  0  0  0
113115  1  0  0  0  0
114116  1  0  0  0  0
114117  1  0  0  0  0
115118  2  0  0  0  0
115119  1  0  0  0  0
116120  2  0  0  0  0
116121  1  0  0  0  0
117122  1  6  0  0  0
117123  1  0  0  0  0
124121  1  1  0  0  0
124125  1  0  0  0  0
124126  1  0  0  0  0
125127  2  0  0  0  0
125128  1  0  0  0  0
126129  1  0  0  0  0
130128  1  6  0  0  0
130131  1  0  0  0  0
130132  1  0  0  0  0
131133  2  0  0  0  0
131134  1  0  0  0  0
132135  1  0  0  0  0
136134  1  1  0  0  0
135137  1  0  0  0  0
136138  1  0  0  0  0
136139  1  0  0  0  0
137140  1  0  0  0  0
138141  2  0  0  0  0
138142  1  0  0  0  0
139143  1  0  0  0  0
140144  1  0  0  0  0
145142  1  6  0  0  0
143146  1  0  0  0  0
145147  1  0  0  0  0
145148  1  0  0  0  0
146149  2  0  0  0  0
146150  1  0  0  0  0
147151  2  0  0  0  0
147152  1  0  0  0  0
148153  1  0  0  0  0
154152  1  1  0  0  0
153155  1  0  0  0  0
153156  2  0  0  0  0
154157  1  0  0  0  0
154158  1  0  0  0  0
155159  2  0  0  0  0
155160  1  0  0  0  0
156161  1  0  0  0  0
157162  2  0  0  0  0
157163  1  0  0  0  0
158164  1  0  0  0  0
159165  1  0  0  0  0
160166  2  0  0  0  0
165167  2  0  0  0  0
  6  7  1  0  0  0  0
 37 42  1  0  0  0  0
 71 75  1  0  0  0  0
159161  1  0  0  0  0
166167  1  0  0  0  0
M  END
>  <MolRegNo>
1625065

>  <m>
=

>  <Value>
3000

>  <Unit>
nM

>  <Type>
Ki

>  <pValue>
5.52

>  <Ligand Efficiency>
0

>  <Binding Efficiency>
2.26

>  <Surface Efficiency>
0

>  <Assay Index>
831551

>  <Assay Category>


>  <Assay Organism>
Homo sapiens

>  <Target ID>
56

>  <Target Name>
Androgen Receptor

>  <Target Organism>
Homo sapiens

>  <Target Description>
Target is a single protein chain

>  <Sequence Accession>
P10275

>  <Reference>
Medchemcomm 4 (1), 187-192 (2013)

>  <Pubmed ID>


>  <DOI>
10.1039/C2MD20182H

$$$$
1625064
Actelion Java MolfileCreator 1.0

168173  0  0  0  0  0  0  0  0999 V2000
    0.0000   -0.0000   -0.0000 S   0  0  0  0  0  0  0  0  0  0  0  0
   -1.3126    0.7568   -0.0000 C   0  0  0  0  0  0  0  0  0  0  0  0
   -1.3244    2.2704   -0.0000 C   0  0  0  0  0  0  0  0  0  0  0  0
   -2.6251    3.0272   -0.0000 N   0  0  0  0  0  0  0  0  0  0  0  0
   -0.0355    3.0272   -0.0000 C   0  0  0  0  0  0  0  0  0  0  0  0
   -3.9377    2.2940   -0.0000 C   0  0  0  0  0  0  0  0  0  0  0  0
   -0.0473    4.5408   -0.0000 O   0  0  0  0  0  0  0  0  0  0  0  0
    1.2534    2.2940   -0.0000 O   0  0  0  0  0  0  0  0  0  0  0  0
   -3.9495    0.8159   -0.0000 O   0  0  0  0  0  0  0  0  0  0  0  0
   -5.2385    3.0508   -0.0000 C   0  0  0  0  0  0  0  0  0  0  0  0
   -6.5510    2.3177   -0.0000 N   0  0  0  0  0  0  0  0  0  0  0  0
   -5.2503    4.5644   -0.0000 C   0  0  0  0  0  0  0  0  0  0  0  0
   -7.8518    3.0745   -0.0000 C   0  0  0  0  0  0  0  0  0  0  0  0
   -3.9732    5.3212   -0.0000 C   0  0  0  0  0  0  0  0  0  0  0  0
   -7.8636    4.5881   -0.0000 O   0  0  0  0  0  0  0  0  0  0  0  0
   -9.1644    2.3413   -0.0000 C   0  0  0  0  0  0  0  0  0  0  0  0
   -3.8313    6.8230   -0.0000 C   0  0  0  0  0  0  0  0  0  0  0  0
   -2.6133    4.7182   -0.0000 C   0  0  0  0  0  0  0  0  0  0  0  0
  -10.4769    3.0981   -0.0000 N   0  0  0  0  0  0  0  0  0  0  0  0
   -9.1762    0.8514   -0.0000 C   0  0  0  0  0  0  0  0  0  0  0  0
   -2.3768    7.1423   -0.0000 C   0  0  0  0  0  0  0  0  0  0  0  0
   -4.8482    7.9464   -0.0000 C   0  0  0  0  0  0  0  0  0  0  0  0
   -1.6200    5.8534   -0.0000 N   0  0  0  0  0  0  0  0  0  0  0  0
  -11.7895    2.3650   -0.0000 C   0  0  0  0  0  0  0  0  0  0  0  0
   -7.8873    0.1182   -0.0000 C   0  0  0  0  0  0  0  0  0  0  0  0
   -1.9275    8.5849   -0.0000 C   0  0  0  0  0  0  0  0  0  0  0  0
   -4.3989    9.3890   -0.0000 C   0  0  0  0  0  0  0  0  0  0  0  0
  -11.8013    0.8750   -0.0000 O   0  0  0  0  0  0  0  0  0  0  0  0
  -13.1021    3.1218   -0.0000 C   0  0  0  0  0  0  0  0  0  0  0  0
   -7.8991   -1.3599   -0.0000 C   0  0  0  0  0  0  0  0  0  0  0  0
   -2.9444    9.7083   -0.0000 C   0  0  0  0  0  0  0  0  0  0  0  0
  -14.4147    2.3886   -0.0000 N   0  0  0  0  0  0  0  0  0  0  0  0
  -13.1139    4.6354   -0.0000 C   0  0  0  0  0  0  0  0  0  0  0  0
   -6.6102   -2.0930   -0.0000 O   0  0  0  0  0  0  0  0  0  0  0  0
   -9.2117   -2.0930   -0.0000 O   0  0  0  0  0  0  0  0  0  0  0  0
  -15.7272    3.1454   -0.0000 C   0  0  0  0  0  0  0  0  0  0  0  0
  -11.8250    5.3922   -0.0000 C   0  0  0  0  0  0  0  0  0  0  0  0
  -15.7391    4.6590   -0.0000 O   0  0  0  0  0  0  0  0  0  0  0  0
  -17.0398    2.4005   -0.0000 C   0  0  0  0  0  0  0  0  0  0  0  0
  -11.8368    6.9058   -0.0000 C   0  0  0  0  0  0  0  0  0  0  0  0
  -18.3406    3.1573   -0.0000 N   0  0  0  0  0  0  0  0  0  0  0  0
  -17.0516    0.9223   -0.0000 C   0  0  0  0  0  0  0  0  0  0  0  0
  -10.5597    7.6626   -0.0000 C   0  0  0  0  0  0  0  0  0  0  0  0
  -19.6531    2.4241   -0.0000 C   0  0  0  0  0  0  0  0  0  0  0  0
  -15.7627    0.1892   -0.0000 S   0  0  0  0  0  0  0  0  0  0  0  0
  -10.5715    9.1762   -0.0000 N   0  0  0  0  0  0  0  0  0  0  0  0
  -19.6650    0.9342   -0.0000 O   0  0  0  0  0  0  0  0  0  0  0  0
  -20.9539    3.1809   -0.0000 C   0  0  0  0  0  0  0  0  0  0  0  0
  -22.2665    2.4478   -0.0000 N   0  0  0  0  0  0  0  0  0  0  0  0
  -20.9657    4.6945   -0.0000 C   0  0  0  0  0  0  0  0  0  0  0  0
  -23.5790    3.2046   -0.0000 C   0  0  0  0  0  0  0  0  0  0  0  0
  -19.6886    5.4631   -0.0000 O   0  0  0  0  0  0  0  0  0  0  0  0
  -22.2783    5.4631   -0.0000 C   0  0  0  0  0  0  0  0  0  0  0  0
  -23.5909    4.7182   -0.0000 O   0  0  0  0  0  0  0  0  0  0  0  0
  -24.8916    2.4714   -0.0000 C   0  0  0  0  0  0  0  0  0  0  0  0
  -26.2042    3.2282   -0.0000 N   0  0  0  0  0  0  0  0  0  0  0  0
  -24.9034    0.9815   -0.0000 C   0  0  0  0  0  0  0  0  0  0  0  0
  -27.5168    2.4951   -0.0000 C   0  0  0  0  0  0  0  0  0  0  0  0
  -23.6145    0.2483   -0.0000 C   0  0  0  0  0  0  0  0  0  0  0  0
  -27.5286    1.0051   -0.0000 O   0  0  0  0  0  0  0  0  0  0  0  0
  -28.8293    3.2519   -0.0000 C   0  0  0  0  0  0  0  0  0  0  0  0
  -23.6263   -1.2416   -0.0000 C   0  0  0  0  0  0  0  0  0  0  0  0
  -30.1419    2.5187   -0.0000 N   0  0  0  0  0  0  0  0  0  0  0  0
  -28.8412    4.7655   -0.0000 C   0  0  0  0  0  0  0  0  0  0  0  0
  -22.3374   -1.9748   -0.0000 O   0  0  0  0  0  0  0  0  0  0  0  0
  -24.9271   -1.9748   -0.0000 O   0  0  0  0  0  0  0  0  0  0  0  0
  -31.4427    3.2755   -0.0000 C   0  0  0  0  0  0  0  0  0  0  0  0
  -27.5522    5.5223   -0.0000 C   0  0  0  0  0  0  0  0  0  0  0  0
  -31.4545    4.7891   -0.0000 O   0  0  0  0  0  0  0  0  0  0  0  0
  -32.7552    2.5305   -0.0000 C   0  0  0  0  0  0  0  0  0  0  0  0
  -27.5641    7.0359   -0.0000 C   0  0  0  0  0  0  0  0  0  0  0  0
  -34.0678    3.2873   -0.0000 N   0  0  0  0  0  0  0  0  0  0  0  0
  -32.7671    1.0524   -0.0000 C   0  0  0  0  0  0  0  0  0  0  0  0
  -26.2870    7.7927   -0.0000 O   0  0  0  0  0  0  0  0  0  0  0  0
  -28.8766    7.7927   -0.0000 O   0  0  0  0  0  0  0  0  0  0  0  0
  -35.3804    2.5542   -0.0000 C   0  0  0  0  0  0  0  0  0  0  0  0
  -31.4781    0.3193   -0.0000 C   0  0  0  0  0  0  0  0  0  0  0  0
  -35.3922    1.0761   -0.0000 O   0  0  0  0  0  0  0  0  0  0  0  0
  -36.6930    3.3110   -0.0000 C   0  0  0  0  0  0  0  0  0  0  0  0
  -31.4900   -1.1707   -0.0000 O   0  0  0  0  0  0  0  0  0  0  0  0
  -30.1892    1.0761   -0.0000 O   0  0  0  0  0  0  0  0  0  0  0  0
  -38.0055    2.5778   -0.0000 N   0  0  0  0  0  0  0  0  0  0  0  0
  -36.7048    4.8246   -0.0000 C   0  0  0  0  0  0  0  0  0  0  0  0
  -39.3063    3.3346   -0.0000 C   0  0  0  0  0  0  0  0  0  0  0  0
  -35.4159    5.5814   -0.0000 C   0  0  0  0  0  0  0  0  0  0  0  0
  -39.3181    4.8482   -0.0000 O   0  0  0  0  0  0  0  0  0  0  0  0
  -40.6307    2.6015   -0.0000 C   0  0  0  0  0  0  0  0  0  0  0  0
  -35.4277    7.0950   -0.0000 O   0  0  0  0  0  0  0  0  0  0  0  0
  -34.1388    4.8482   -0.0000 N   0  0  0  0  0  0  0  0  0  0  0  0
  -41.9314    3.3583   -0.0000 N   0  0  0  0  0  0  0  0  0  0  0  0
  -43.2322    2.6251   -0.0000 C   0  0  0  0  0  0  0  0  0  0  0  0
  -43.2440    1.1352   -0.0000 O   0  0  0  0  0  0  0  0  0  0  0  0
  -44.5448    3.3819   -0.0000 C   0  0  0  0  0  0  0  0  0  0  0  0
  -45.8573    2.6488   -0.0000 N   0  0  0  0  0  0  0  0  0  0  0  0
  -44.5566    4.8955   -0.0000 C   0  0  0  0  0  0  0  0  0  0  0  0
  -47.1581    3.4056   -0.0000 C   0  0  0  0  0  0  0  0  0  0  0  0
  -43.2677    5.6523   -0.0000 C   0  0  0  0  0  0  0  0  0  0  0  0
  -47.1699    4.9192   -0.0000 O   0  0  0  0  0  0  0  0  0  0  0  0
  -48.4707    2.6724   -0.0000 C   0  0  0  0  0  0  0  0  0  0  0  0
  -43.2795    7.1659   -0.0000 C   0  0  0  0  0  0  0  0  0  0  0  0
  -49.7714    3.4292   -0.0000 N   0  0  0  0  0  0  0  0  0  0  0  0
  -48.4825    1.1825   -0.0000 C   0  0  0  0  0  0  0  0  0  0  0  0
  -42.0142    7.9227   -0.0000 O   0  0  0  0  0  0  0  0  0  0  0  0
  -44.5921    7.9227   -0.0000 O   0  0  0  0  0  0  0  0  0  0  0  0
  -51.0840    2.6961   -0.0000 C   0  0  0  0  0  0  0  0  0  0  0  0
  -47.1936    0.4493   -0.0000 C   0  0  0  0  0  0  0  0  0  0  0  0
  -51.0958    1.2180   -0.0000 O   0  0  0  0  0  0  0  0  0  0  0  0
  -52.3847    3.4529   -0.0000 C   0  0  0  0  0  0  0  0  0  0  0  0
  -45.9165    1.2180   -0.0000 C   0  0  0  0  0  0  0  0  0  0  0  0
  -47.2054   -1.0406   -0.0000 C   0  0  0  0  0  0  0  0  0  0  0  0
  -53.6973    2.7197   -0.0000 N   0  0  0  0  0  0  0  0  0  0  0  0
  -52.3966    4.9665   -0.0000 C   0  0  0  0  0  0  0  0  0  0  0  0
  -44.6275    0.4848   -0.0000 C   0  0  0  0  0  0  0  0  0  0  0  0
  -45.9165   -1.7737   -0.0000 C   0  0  0  0  0  0  0  0  0  0  0  0
  -55.0099    3.4765   -0.0000 C   0  0  0  0  0  0  0  0  0  0  0  0
  -51.1195    5.7233   -0.0000 C   0  0  0  0  0  0  0  0  0  0  0  0
  -44.6394   -1.0051   -0.0000 C   0  0  0  0  0  0  0  0  0  0  0  0
  -55.0217    4.9901   -0.0000 O   0  0  0  0  0  0  0  0  0  0  0  0
  -56.3225    2.7434   -0.0000 C   0  0  0  0  0  0  0  0  0  0  0  0
  -51.1313    7.2369   -0.0000 C   0  0  0  0  0  0  0  0  0  0  0  0
  -49.8305    4.9901   -0.0000 C   0  0  0  0  0  0  0  0  0  0  0  0
  -57.6350    3.5002   -0.0000 N   0  0  0  0  0  0  0  0  0  0  0  0
  -56.3343    1.2534   -0.0000 C   0  0  0  0  0  0  0  0  0  0  0  0
  -58.9476    2.7670   -0.0000 C   0  0  0  0  0  0  0  0  0  0  0  0
  -55.0454    0.5203   -0.0000 S   0  0  0  0  0  0  0  0  0  0  0  0
  -58.9594    1.2771   -0.0000 O   0  0  0  0  0  0  0  0  0  0  0  0
  -60.2602    3.5238   -0.0000 C   0  0  0  0  0  0  0  0  0  0  0  0
  -61.5728    2.7907   -0.0000 N   0  0  0  0  0  0  0  0  0  0  0  0
  -60.2720    5.0374   -0.0000 C   0  0  0  0  0  0  0  0  0  0  0  0
  -62.8735    3.5475   -0.0000 C   0  0  0  0  0  0  0  0  0  0  0  0
  -58.9831    5.7942   -0.0000 C   0  0  0  0  0  0  0  0  0  0  0  0
  -62.8853    5.0611   -0.0000 O   0  0  0  0  0  0  0  0  0  0  0  0
  -64.1861    2.8143   -0.0000 C   0  0  0  0  0  0  0  0  0  0  0  0
  -58.8530    7.2960   -0.0000 N   0  0  0  0  0  0  0  0  0  0  0  0
  -57.6350    5.2030   -0.0000 C   0  0  0  0  0  0  0  0  0  0  0  0
  -65.4868    3.5711   -0.0000 N   0  0  0  0  0  0  0  0  0  0  0  0
  -64.1979    1.3244   -0.0000 C   0  0  0  0  0  0  0  0  0  0  0  0
  -57.3985    7.6271   -0.0000 C   0  0  0  0  0  0  0  0  0  0  0  0
  -56.6417    6.3264   -0.0000 N   0  0  0  0  0  0  0  0  0  0  0  0
  -66.7994    2.8380   -0.0000 C   0  0  0  0  0  0  0  0  0  0  0  0
  -62.9090    0.5912   -0.0000 C   0  0  0  0  0  0  0  0  0  0  0  0
  -66.8112    1.3480   -0.0000 O   0  0  0  0  0  0  0  0  0  0  0  0
  -68.1120    3.5948   -0.0000 C   0  0  0  0  0  0  0  0  0  0  0  0
  -61.6319    1.3599   -0.0000 C   0  0  0  0  0  0  0  0  0  0  0  0
  -62.9208   -0.8987   -0.0000 C   0  0  0  0  0  0  0  0  0  0  0  0
  -69.4246    2.8616   -0.0000 N   0  0  0  0  0  0  0  0  0  0  0  0
  -68.1238    5.1084   -0.0000 C   0  0  0  0  0  0  0  0  0  0  0  0
  -60.3430    0.6267   -0.0000 C   0  0  0  0  0  0  0  0  0  0  0  0
  -61.6437   -1.6318   -0.0000 C   0  0  0  0  0  0  0  0  0  0  0  0
  -70.7371    3.6184   -0.0000 C   0  0  0  0  0  0  0  0  0  0  0  0
  -66.8349    5.8652   -0.0000 C   0  0  0  0  0  0  0  0  0  0  0  0
  -60.3548   -0.8632   -0.0000 C   0  0  0  0  0  0  0  0  0  0  0  0
  -70.7490    5.1320   -0.0000 O   0  0  0  0  0  0  0  0  0  0  0  0
  -72.0497    2.8853   -0.0000 C   0  0  0  0  0  0  0  0  0  0  0  0
  -66.8467    7.3788   -0.0000 C   0  0  0  0  0  0  0  0  0  0  0  0
  -65.5460    5.1320   -0.0000 C   0  0  0  0  0  0  0  0  0  0  0  0
  -73.3623    3.6421   -0.0000 N   0  0  0  0  0  0  0  0  0  0  0  0
  -72.0615    1.3953   -0.0000 C   0  0  0  0  0  0  0  0  0  0  0  0
  -65.5578    8.1356   -0.0000 C   0  0  0  0  0  0  0  0  0  0  0  0
  -64.2689    5.8888   -0.0000 C   0  0  0  0  0  0  0  0  0  0  0  0
  -74.6630    2.9089   -0.0000 C   0  0  0  0  0  0  0  0  0  0  0  0
  -70.7726    0.6622   -0.0000 S   0  0  0  0  0  0  0  0  0  0  0  0
  -64.2807    7.4024   -0.0000 C   0  0  0  0  0  0  0  0  0  0  0  0
  -74.6749    1.4190   -0.0000 O   0  0  0  0  0  0  0  0  0  0  0  0
  -75.9756    3.6657   -0.0000 C   0  0  0  0  0  0  0  0  0  0  0  0
  -62.9918    8.1592   -0.0000 O   0  0  0  0  0  0  0  0  0  0  0  0
  -77.2882    2.9326   -0.0000 N   0  0  0  0  0  0  0  0  0  0  0  0
  -75.9874    5.1793   -0.0000 C   0  0  0  0  0  0  0  0  0  0  0  0
  1  2  1  0  0  0  0
  2  3  1  0  0  0  0
  3  4  1  6  0  0  0
  3  5  1  0  0  0  0
  4  6  1  0  0  0  0
  5  7  2  0  0  0  0
  5  8  1  0  0  0  0
  6  9  2  0  0  0  0
  6 10  1  0  0  0  0
 10 11  1  1  0  0  0
 10 12  1  0  0  0  0
 11 13  1  0  0  0  0
 12 14  1  0  0  0  0
 13 15  2  0  0  0  0
 13 16  1  0  0  0  0
 14 17  1  0  0  0  0
 14 18  2  0  0  0  0
 16 19  1  6  0  0  0
 16 20  1  0  0  0  0
 17 21  2  0  0  0  0
 17 22  1  0  0  0  0
 18 23  1  0  0  0  0
 19 24  1  0  0  0  0
 20 25  1  0  0  0  0
 21 26  1  0  0  0  0
 22 27  2  0  0  0  0
 24 28  2  0  0  0  0
 24 29  1  0  0  0  0
 25 30  1  0  0  0  0
 26 31  2  0  0  0  0
 29 32  1  1  0  0  0
 29 33  1  0  0  0  0
 30 34  2  0  0  0  0
 30 35  1  0  0  0  0
 32 36  1  0  0  0  0
 33 37  1  0  0  0  0
 36 38  2  0  0  0  0
 36 39  1  0  0  0  0
 37 40  1  0  0  0  0
 39 41  1  6  0  0  0
 39 42  1  0  0  0  0
 40 43  1  0  0  0  0
 41 44  1  0  0  0  0
 42 45  1  0  0  0  0
 43 46  1  0  0  0  0
 44 47  2  0  0  0  0
 44 48  1  0  0  0  0
 48 49  1  1  0  0  0
 48 50  1  0  0  0  0
 49 51  1  0  0  0  0
 50 52  1  1  0  0  0
 50 53  1  0  0  0  0
 51 54  2  0  0  0  0
 51 55  1  0  0  0  0
 55 56  1  6  0  0  0
 55 57  1  0  0  0  0
 56 58  1  0  0  0  0
 57 59  1  0  0  0  0
 58 60  2  0  0  0  0
 58 61  1  0  0  0  0
 59 62  1  0  0  0  0
 61 63  1  1  0  0  0
 61 64  1  0  0  0  0
 62 65  2  0  0  0  0
 62 66  1  0  0  0  0
 63 67  1  0  0  0  0
 64 68  1  0  0  0  0
 67 69  2  0  0  0  0
 67 70  1  0  0  0  0
 68 71  1  0  0  0  0
 70 72  1  6  0  0  0
 70 73  1  0  0  0  0
 71 74  2  0  0  0  0
 71 75  1  0  0  0  0
 72 76  1  0  0  0  0
 73 77  1  0  0  0  0
 76 78  2  0  0  0  0
 76 79  1  0  0  0  0
 77 80  2  0  0  0  0
 77 81  1  0  0  0  0
 79 82  1  1  0  0  0
 79 83  1  0  0  0  0
 82 84  1  0  0  0  0
 83 85  1  0  0  0  0
 84 86  2  0  0  0  0
 84 87  1  0  0  0  0
 85 88  2  0  0  0  0
 85 89  1  0  0  0  0
 87 90  1  0  0  0  0
 90 91  1  0  0  0  0
 91 92  2  0  0  0  0
 91 93  1  0  0  0  0
 93 94  1  1  0  0  0
 93 95  1  0  0  0  0
 94 96  1  0  0  0  0
 95 97  1  0  0  0  0
 96 98  2  0  0  0  0
 96 99  1  0  0  0  0
 97100  1  0  0  0  0
 99101  1  6  0  0  0
 99102  1  0  0  0  0
100103  2  0  0  0  0
100104  1  0  0  0  0
101105  1  0  0  0  0
102106  1  0  0  0  0
105107  2  0  0  0  0
105108  1  0  0  0  0
106109  2  0  0  0  0
106110  1  0  0  0  0
108111  1  1  0  0  0
108112  1  0  0  0  0
109113  1  0  0  0  0
110114  2  0  0  0  0
111115  1  0  0  0  0
112116  1  0  0  0  0
113117  2  0  0  0  0
115118  2  0  0  0  0
115119  1  0  0  0  0
116120  1  0  0  0  0
116121  1  0  0  0  0
119122  1  6  0  0  0
119123  1  0  0  0  0
122124  1  0  0  0  0
123125  1  0  0  0  0
124126  2  0  0  0  0
124127  1  0  0  0  0
127128  1  1  0  0  0
127129  1  0  0  0  0
128130  1  0  0  0  0
129131  1  0  0  0  0
130132  2  0  0  0  0
130133  1  0  0  0  0
131134  1  0  0  0  0
131135  2  0  0  0  0
133136  1  6  0  0  0
133137  1  0  0  0  0
134138  1  0  0  0  0
135139  1  0  0  0  0
136140  1  0  0  0  0
137141  1  0  0  0  0
140142  2  0  0  0  0
140143  1  0  0  0  0
141144  2  0  0  0  0
141145  1  0  0  0  0
143146  1  1  0  0  0
143147  1  0  0  0  0
144148  1  0  0  0  0
145149  2  0  0  0  0
146150  1  0  0  0  0
147151  1  0  0  0  0
148152  2  0  0  0  0
150153  2  0  0  0  0
150154  1  0  0  0  0
151155  2  0  0  0  0
151156  1  0  0  0  0
154157  1  6  0  0  0
154158  1  0  0  0  0
155159  1  0  0  0  0
156160  2  0  0  0  0
157161  1  0  0  0  0
158162  1  0  0  0  0
159163  2  0  0  0  0
161164  2  0  0  0  0
161165  1  0  0  0  0
163166  1  0  0  0  0
165167  1  1  0  0  0
165168  1  0  0  0  0
 21 23  1  0  0  0  0
 27 31  1  0  0  0  0
114117  1  0  0  0  0
138139  2  0  0  0  0
149152  1  0  0  0  0
160163  1  0  0  0  0
M  END
>  <MolRegNo>
1625064

>  <m>
=

>  <Value>
7000

>  <Unit>
nM

>  <Type>
Ki

>  <pValue>
5.16

>  <Ligand Efficiency>
0

>  <Binding Efficiency>
2.12

>  <Surface Efficiency>
0

>  <Assay Index>
831551

>  <Assay Category>


>  <Assay Organism>
Homo sapiens

>  <Target ID>
56

>  <Target Name>
Androgen Receptor

>  <Target Organism>
Homo sapiens

>  <Target Description>
Target is a single protein chain

>  <Sequence Accession>
P10275

>  <Reference>
Medchemcomm 4 (1), 187-192 (2013)

>  <Pubmed ID>


>  <DOI>
10.1039/C2MD20182H

$$$$
1625063
Actelion Java MolfileCreator 1.0

169174  0  0  0  0  0  0  0  0999 V2000
    0.0000   -0.0000   -0.0000 S   0  0  0  0  0  0  0  0  0  0  0  0
   -1.3138    0.7575   -0.0000 C   0  0  0  0  0  0  0  0  0  0  0  0
   -1.3256    2.2607   -0.0000 C   0  0  0  0  0  0  0  0  0  0  0  0
   -2.6276    3.0182   -0.0000 N   0  0  0  0  0  0  0  0  0  0  0  0
   -0.0355    3.0182   -0.0000 C   0  0  0  0  0  0  0  0  0  0  0  0
   -3.9414    2.2844   -0.0000 C   0  0  0  0  0  0  0  0  0  0  0  0
   -0.0473    4.5332   -0.0000 O   0  0  0  0  0  0  0  0  0  0  0  0
    1.2546    2.2844   -0.0000 O   0  0  0  0  0  0  0  0  0  0  0  0
   -3.9532    0.8049   -0.0000 O   0  0  0  0  0  0  0  0  0  0  0  0
   -5.2434    3.0419   -0.0000 C   0  0  0  0  0  0  0  0  0  0  0  0
   -6.5572    2.3080   -0.0000 N   0  0  0  0  0  0  0  0  0  0  0  0
   -5.2552    4.5569   -0.0000 C   0  0  0  0  0  0  0  0  0  0  0  0
   -7.8591    3.0655   -0.0000 C   0  0  0  0  0  0  0  0  0  0  0  0
   -3.9769    5.3144   -0.0000 C   0  0  0  0  0  0  0  0  0  0  0  0
   -7.8710    4.5805   -0.0000 O   0  0  0  0  0  0  0  0  0  0  0  0
   -9.1729    2.3317   -0.0000 C   0  0  0  0  0  0  0  0  0  0  0  0
   -3.8349    6.8176   -0.0000 C   0  0  0  0  0  0  0  0  0  0  0  0
   -2.6158    4.7107   -0.0000 C   0  0  0  0  0  0  0  0  0  0  0  0
  -10.4867    3.0892   -0.0000 N   0  0  0  0  0  0  0  0  0  0  0  0
   -9.1848    0.8522   -0.0000 C   0  0  0  0  0  0  0  0  0  0  0  0
   -2.3790    7.1371   -0.0000 C   0  0  0  0  0  0  0  0  0  0  0  0
   -4.8528    7.9420   -0.0000 C   0  0  0  0  0  0  0  0  0  0  0  0
   -1.6215    5.8470   -0.0000 N   0  0  0  0  0  0  0  0  0  0  0  0
  -11.8005    2.3554   -0.0000 C   0  0  0  0  0  0  0  0  0  0  0  0
   -7.8946    0.1184   -0.0000 C   0  0  0  0  0  0  0  0  0  0  0  0
   -1.9293    8.5811   -0.0000 C   0  0  0  0  0  0  0  0  0  0  0  0
   -4.4030    9.3741   -0.0000 C   0  0  0  0  0  0  0  0  0  0  0  0
  -11.8124    0.8759   -0.0000 O   0  0  0  0  0  0  0  0  0  0  0  0
  -13.1143    3.1129   -0.0000 C   0  0  0  0  0  0  0  0  0  0  0  0
   -7.9065   -1.3611   -0.0000 C   0  0  0  0  0  0  0  0  0  0  0  0
   -2.9472    9.7056   -0.0000 C   0  0  0  0  0  0  0  0  0  0  0  0
  -14.4281    2.3790   -0.0000 N   0  0  0  0  0  0  0  0  0  0  0  0
  -13.1262    4.6279   -0.0000 C   0  0  0  0  0  0  0  0  0  0  0  0
   -6.6163   -2.0950   -0.0000 O   0  0  0  0  0  0  0  0  0  0  0  0
   -9.2203   -2.0950   -0.0000 O   0  0  0  0  0  0  0  0  0  0  0  0
  -15.7419    3.1366   -0.0000 C   0  0  0  0  0  0  0  0  0  0  0  0
  -11.8360    5.3854   -0.0000 C   0  0  0  0  0  0  0  0  0  0  0  0
  -15.7538    4.6516   -0.0000 O   0  0  0  0  0  0  0  0  0  0  0  0
  -17.0557    2.3909   -0.0000 C   0  0  0  0  0  0  0  0  0  0  0  0
  -11.8479    6.9004   -0.0000 C   0  0  0  0  0  0  0  0  0  0  0  0
  -18.3577    3.1484   -0.0000 N   0  0  0  0  0  0  0  0  0  0  0  0
  -17.0676    0.9114   -0.0000 C   0  0  0  0  0  0  0  0  0  0  0  0
  -10.5696    7.6579   -0.0000 C   0  0  0  0  0  0  0  0  0  0  0  0
  -19.6715    2.4146   -0.0000 C   0  0  0  0  0  0  0  0  0  0  0  0
  -15.7774    0.1775   -0.0000 S   0  0  0  0  0  0  0  0  0  0  0  0
  -10.5814    9.1729   -0.0000 N   0  0  0  0  0  0  0  0  0  0  0  0
  -19.6833    0.9350   -0.0000 O   0  0  0  0  0  0  0  0  0  0  0  0
  -20.9735    3.1721   -0.0000 C   0  0  0  0  0  0  0  0  0  0  0  0
  -22.2873    2.4382   -0.0000 N   0  0  0  0  0  0  0  0  0  0  0  0
  -20.9853    4.6871   -0.0000 C   0  0  0  0  0  0  0  0  0  0  0  0
  -23.5892    3.1957   -0.0000 C   0  0  0  0  0  0  0  0  0  0  0  0
  -19.7070    5.4564   -0.0000 O   0  0  0  0  0  0  0  0  0  0  0  0
  -22.2991    5.4564   -0.0000 C   0  0  0  0  0  0  0  0  0  0  0  0
  -23.6011    4.7107   -0.0000 O   0  0  0  0  0  0  0  0  0  0  0  0
  -24.9030    2.4619   -0.0000 C   0  0  0  0  0  0  0  0  0  0  0  0
  -26.2168    3.2194   -0.0000 N   0  0  0  0  0  0  0  0  0  0  0  0
  -24.9149    0.9824   -0.0000 C   0  0  0  0  0  0  0  0  0  0  0  0
  -27.5306    2.4856   -0.0000 C   0  0  0  0  0  0  0  0  0  0  0  0
  -23.6247    0.2486   -0.0000 C   0  0  0  0  0  0  0  0  0  0  0  0
  -27.5425    1.0061   -0.0000 O   0  0  0  0  0  0  0  0  0  0  0  0
  -28.8444    3.2431   -0.0000 C   0  0  0  0  0  0  0  0  0  0  0  0
  -23.6366   -1.2309   -0.0000 C   0  0  0  0  0  0  0  0  0  0  0  0
  -30.1582    2.5092   -0.0000 N   0  0  0  0  0  0  0  0  0  0  0  0
  -28.8563    4.7581   -0.0000 C   0  0  0  0  0  0  0  0  0  0  0  0
  -22.3465   -1.9648   -0.0000 O   0  0  0  0  0  0  0  0  0  0  0  0
  -24.9504   -1.9648   -0.0000 O   0  0  0  0  0  0  0  0  0  0  0  0
  -31.4720    3.2667   -0.0000 C   0  0  0  0  0  0  0  0  0  0  0  0
  -27.5662    5.5156   -0.0000 C   0  0  0  0  0  0  0  0  0  0  0  0
  -31.4839    4.7818   -0.0000 O   0  0  0  0  0  0  0  0  0  0  0  0
  -32.7858    2.5329   -0.0000 C   0  0  0  0  0  0  0  0  0  0  0  0
  -27.5780    7.0306   -0.0000 C   0  0  0  0  0  0  0  0  0  0  0  0
  -34.0760    3.2904   -0.0000 N   0  0  0  0  0  0  0  0  0  0  0  0
  -32.7977    1.0534   -0.0000 C   0  0  0  0  0  0  0  0  0  0  0  0
  -26.2997    7.7881   -0.0000 O   0  0  0  0  0  0  0  0  0  0  0  0
  -28.8918    7.8000   -0.0000 O   0  0  0  0  0  0  0  0  0  0  0  0
  -35.4016    2.5566   -0.0000 C   0  0  0  0  0  0  0  0  0  0  0  0
  -31.5076    0.3196   -0.0000 C   0  0  0  0  0  0  0  0  0  0  0  0
  -35.4135    1.0771   -0.0000 O   0  0  0  0  0  0  0  0  0  0  0  0
  -36.6917    3.3141   -0.0000 C   0  0  0  0  0  0  0  0  0  0  0  0
  -31.5194   -1.1599   -0.0000 O   0  0  0  0  0  0  0  0  0  0  0  0
  -30.2056    1.0771   -0.0000 O   0  0  0  0  0  0  0  0  0  0  0  0
  -38.0055    2.5803   -0.0000 N   0  0  0  0  0  0  0  0  0  0  0  0
  -36.7036    4.8291   -0.0000 C   0  0  0  0  0  0  0  0  0  0  0  0
  -39.3075    3.3378   -0.0000 C   0  0  0  0  0  0  0  0  0  0  0  0
  -35.4371    5.5866   -0.0000 C   0  0  0  0  0  0  0  0  0  0  0  0
  -39.3193    4.8528   -0.0000 O   0  0  0  0  0  0  0  0  0  0  0  0
  -40.6213    2.6039   -0.0000 C   0  0  0  0  0  0  0  0  0  0  0  0
  -35.4490    7.1016   -0.0000 O   0  0  0  0  0  0  0  0  0  0  0  0
  -34.1470    4.8528   -0.0000 N   0  0  0  0  0  0  0  0  0  0  0  0
  -41.9351    3.3614   -0.0000 N   0  0  0  0  0  0  0  0  0  0  0  0
  -43.2489    2.6276   -0.0000 C   0  0  0  0  0  0  0  0  0  0  0  0
  -43.2607    1.1481   -0.0000 O   0  0  0  0  0  0  0  0  0  0  0  0
  -44.5627    3.3851   -0.0000 C   0  0  0  0  0  0  0  0  0  0  0  0
  -45.8765    2.6513   -0.0000 N   0  0  0  0  0  0  0  0  0  0  0  0
  -44.5745    4.9001   -0.0000 C   0  0  0  0  0  0  0  0  0  0  0  0
  -47.1785    3.4088   -0.0000 C   0  0  0  0  0  0  0  0  0  0  0  0
  -43.2844    5.6576   -0.0000 C   0  0  0  0  0  0  0  0  0  0  0  0
  -47.1903    4.9238   -0.0000 O   0  0  0  0  0  0  0  0  0  0  0  0
  -48.4923    2.6749   -0.0000 C   0  0  0  0  0  0  0  0  0  0  0  0
  -43.2963    7.1726   -0.0000 C   0  0  0  0  0  0  0  0  0  0  0  0
  -49.7942    3.4325   -0.0000 N   0  0  0  0  0  0  0  0  0  0  0  0
  -48.5041    1.1954   -0.0000 C   0  0  0  0  0  0  0  0  0  0  0  0
  -42.0180    7.9302   -0.0000 O   0  0  0  0  0  0  0  0  0  0  0  0
  -44.6101    7.9302   -0.0000 O   0  0  0  0  0  0  0  0  0  0  0  0
  -51.1080    2.6986   -0.0000 C   0  0  0  0  0  0  0  0  0  0  0  0
  -47.2140    0.4616   -0.0000 C   0  0  0  0  0  0  0  0  0  0  0  0
  -51.1199    1.2191   -0.0000 O   0  0  0  0  0  0  0  0  0  0  0  0
  -52.4100    3.4561   -0.0000 C   0  0  0  0  0  0  0  0  0  0  0  0
  -45.9239    1.2309   -0.0000 C   0  0  0  0  0  0  0  0  0  0  0  0
  -47.2258   -1.0179   -0.0000 C   0  0  0  0  0  0  0  0  0  0  0  0
  -53.7238    2.7223   -0.0000 N   0  0  0  0  0  0  0  0  0  0  0  0
  -52.4218    4.9711   -0.0000 C   0  0  0  0  0  0  0  0  0  0  0  0
  -44.6456    0.4971   -0.0000 C   0  0  0  0  0  0  0  0  0  0  0  0
  -45.9357   -1.7517   -0.0000 C   0  0  0  0  0  0  0  0  0  0  0  0
  -55.0376    3.4798   -0.0000 C   0  0  0  0  0  0  0  0  0  0  0  0
  -51.1436    5.7286   -0.0000 C   0  0  0  0  0  0  0  0  0  0  0  0
  -44.6574   -0.9942   -0.0000 C   0  0  0  0  0  0  0  0  0  0  0  0
  -55.0495    4.9948   -0.0000 O   0  0  0  0  0  0  0  0  0  0  0  0
  -56.3514    2.7460   -0.0000 C   0  0  0  0  0  0  0  0  0  0  0  0
  -51.1554    7.2437   -0.0000 C   0  0  0  0  0  0  0  0  0  0  0  0
  -49.8534    4.9948   -0.0000 C   0  0  0  0  0  0  0  0  0  0  0  0
  -57.6652    3.5035   -0.0000 N   0  0  0  0  0  0  0  0  0  0  0  0
  -56.3633    1.2665   -0.0000 C   0  0  0  0  0  0  0  0  0  0  0  0
  -58.9790    2.7696   -0.0000 C   0  0  0  0  0  0  0  0  0  0  0  0
  -55.0731    0.5326   -0.0000 S   0  0  0  0  0  0  0  0  0  0  0  0
  -58.9909    1.2901   -0.0000 O   0  0  0  0  0  0  0  0  0  0  0  0
  -60.2928    3.5271   -0.0000 C   0  0  0  0  0  0  0  0  0  0  0  0
  -61.6066    2.7933   -0.0000 N   0  0  0  0  0  0  0  0  0  0  0  0
  -60.3047    5.0422   -0.0000 C   0  0  0  0  0  0  0  0  0  0  0  0
  -62.9086    3.5508   -0.0000 C   0  0  0  0  0  0  0  0  0  0  0  0
  -59.0145    5.7997   -0.0000 C   0  0  0  0  0  0  0  0  0  0  0  0
  -62.9204    5.0658   -0.0000 O   0  0  0  0  0  0  0  0  0  0  0  0
  -64.2224    2.8170   -0.0000 C   0  0  0  0  0  0  0  0  0  0  0  0
  -57.7362    5.0658   -0.0000 C   0  0  0  0  0  0  0  0  0  0  0  0
  -59.0264    7.3147   -0.0000 C   0  0  0  0  0  0  0  0  0  0  0  0
  -65.5244    3.5745   -0.0000 N   0  0  0  0  0  0  0  0  0  0  0  0
  -64.2342    1.3375   -0.0000 C   0  0  0  0  0  0  0  0  0  0  0  0
  -56.4461    5.8233   -0.0000 C   0  0  0  0  0  0  0  0  0  0  0  0
  -57.7481    8.0722   -0.0000 C   0  0  0  0  0  0  0  0  0  0  0  0
  -66.8382    2.8407   -0.0000 C   0  0  0  0  0  0  0  0  0  0  0  0
  -62.9441    0.6036   -0.0000 C   0  0  0  0  0  0  0  0  0  0  0  0
  -56.4579    7.3383   -0.0000 C   0  0  0  0  0  0  0  0  0  0  0  0
  -66.8500    1.3611   -0.0000 O   0  0  0  0  0  0  0  0  0  0  0  0
  -68.1401    3.5982   -0.0000 C   0  0  0  0  0  0  0  0  0  0  0  0
  -61.6658    1.3730   -0.0000 C   0  0  0  0  0  0  0  0  0  0  0  0
  -62.9559   -0.8759   -0.0000 C   0  0  0  0  0  0  0  0  0  0  0  0
  -69.4539    2.8643   -0.0000 N   0  0  0  0  0  0  0  0  0  0  0  0
  -68.1520    5.1132   -0.0000 C   0  0  0  0  0  0  0  0  0  0  0  0
  -60.3757    0.6391   -0.0000 C   0  0  0  0  0  0  0  0  0  0  0  0
  -61.6658   -1.6097   -0.0000 C   0  0  0  0  0  0  0  0  0  0  0  0
  -70.7677    3.6218   -0.0000 C   0  0  0  0  0  0  0  0  0  0  0  0
  -66.8737    5.8707   -0.0000 C   0  0  0  0  0  0  0  0  0  0  0  0
  -60.3875   -0.8522   -0.0000 C   0  0  0  0  0  0  0  0  0  0  0  0
  -70.7796    5.1368   -0.0000 O   0  0  0  0  0  0  0  0  0  0  0  0
  -72.0815    2.8880   -0.0000 C   0  0  0  0  0  0  0  0  0  0  0  0
  -66.8855    7.3857   -0.0000 C   0  0  0  0  0  0  0  0  0  0  0  0
  -65.5835    5.1368   -0.0000 C   0  0  0  0  0  0  0  0  0  0  0  0
  -73.3953    3.6455   -0.0000 N   0  0  0  0  0  0  0  0  0  0  0  0
  -72.0934    1.3967   -0.0000 C   0  0  0  0  0  0  0  0  0  0  0  0
  -65.5954    8.1432   -0.0000 C   0  0  0  0  0  0  0  0  0  0  0  0
  -64.3052    5.8944   -0.0000 C   0  0  0  0  0  0  0  0  0  0  0  0
  -74.6973    2.9117   -0.0000 C   0  0  0  0  0  0  0  0  0  0  0  0
  -70.8032    0.6628   -0.0000 S   0  0  0  0  0  0  0  0  0  0  0  0
  -64.3171    7.4094   -0.0000 C   0  0  0  0  0  0  0  0  0  0  0  0
  -74.7091    1.4203   -0.0000 O   0  0  0  0  0  0  0  0  0  0  0  0
  -76.0111    3.6692   -0.0000 C   0  0  0  0  0  0  0  0  0  0  0  0
  -63.0269    8.1669   -0.0000 O   0  0  0  0  0  0  0  0  0  0  0  0
  -77.3249    2.9353   -0.0000 N   0  0  0  0  0  0  0  0  0  0  0  0
  -76.0229    5.1842   -0.0000 C   0  0  0  0  0  0  0  0  0  0  0  0
  1  2  1  0  0  0  0
  2  3  1  0  0  0  0
  3  4  1  6  0  0  0
  3  5  1  0  0  0  0
  4  6  1  0  0  0  0
  5  7  2  0  0  0  0
  5  8  1  0  0  0  0
  6  9  2  0  0  0  0
  6 10  1  0  0  0  0
 10 11  1  1  0  0  0
 10 12  1  0  0  0  0
 11 13  1  0  0  0  0
 12 14  1  0  0  0  0
 13 15  2  0  0  0  0
 13 16  1  0  0  0  0
 14 17  1  0  0  0  0
 14 18  2  0  0  0  0
 16 19  1  6  0  0  0
 16 20  1  0  0  0  0
 17 21  2  0  0  0  0
 17 22  1  0  0  0  0
 18 23  1  0  0  0  0
 19 24  1  0  0  0  0
 20 25  1  0  0  0  0
 21 26  1  0  0  0  0
 22 27  2  0  0  0  0
 24 28  2  0  0  0  0
 24 29  1  0  0  0  0
 25 30  1  0  0  0  0
 26 31  2  0  0  0  0
 29 32  1  1  0  0  0
 29 33  1  0  0  0  0
 30 34  2  0  0  0  0
 30 35  1  0  0  0  0
 32 36  1  0  0  0  0
 33 37  1  0  0  0  0
 36 38  2  0  0  0  0
 36 39  1  0  0  0  0
 37 40  1  0  0  0  0
 39 41  1  6  0  0  0
 39 42  1  0  0  0  0
 40 43  1  0  0  0  0
 41 44  1  0  0  0  0
 42 45  1  0  0  0  0
 43 46  1  0  0  0  0
 44 47  2  0  0  0  0
 44 48  1  0  0  0  0
 48 49  1  1  0  0  0
 48 50  1  0  0  0  0
 49 51  1  0  0  0  0
 50 52  1  1  0  0  0
 50 53  1  0  0  0  0
 51 54  2  0  0  0  0
 51 55  1  0  0  0  0
 55 56  1  6  0  0  0
 55 57  1  0  0  0  0
 56 58  1  0  0  0  0
 57 59  1  0  0  0  0
 58 60  2  0  0  0  0
 58 61  1  0  0  0  0
 59 62  1  0  0  0  0
 61 63  1  1  0  0  0
 61 64  1  0  0  0  0
 62 65  2  0  0  0  0
 62 66  1  0  0  0  0
 63 67  1  0  0  0  0
 64 68  1  0  0  0  0
 67 69  2  0  0  0  0
 67 70  1  0  0  0  0
 68 71  1  0  0  0  0
 70 72  1  6  0  0  0
 70 73  1  0  0  0  0
 71 74  2  0  0  0  0
 71 75  1  0  0  0  0
 72 76  1  0  0  0  0
 73 77  1  0  0  0  0
 76 78  2  0  0  0  0
 76 79  1  0  0  0  0
 77 80  2  0  0  0  0
 77 81  1  0  0  0  0
 79 82  1  1  0  0  0
 79 83  1  0  0  0  0
 82 84  1  0  0  0  0
 83 85  1  0  0  0  0
 84 86  2  0  0  0  0
 84 87  1  0  0  0  0
 85 88  2  0  0  0  0
 85 89  1  0  0  0  0
 87 90  1  0  0  0  0
 90 91  1  0  0  0  0
 91 92  2  0  0  0  0
 91 93  1  0  0  0  0
 93 94  1  1  0  0  0
 93 95  1  0  0  0  0
 94 96  1  0  0  0  0
 95 97  1  0  0  0  0
 96 98  2  0  0  0  0
 96 99  1  0  0  0  0
 97100  1  0  0  0  0
 99101  1  6  0  0  0
 99102  1  0  0  0  0
100103  2  0  0  0  0
100104  1  0  0  0  0
101105  1  0  0  0  0
102106  1  0  0  0  0
105107  2  0  0  0  0
105108  1  0  0  0  0
106109  2  0  0  0  0
106110  1  0  0  0  0
108111  1  1  0  0  0
108112  1  0  0  0  0
109113  1  0  0  0  0
110114  2  0  0  0  0
111115  1  0  0  0  0
112116  1  0  0  0  0
113117  2  0  0  0  0
115118  2  0  0  0  0
115119  1  0  0  0  0
116120  1  0  0  0  0
116121  1  0  0  0  0
119122  1  6  0  0  0
119123  1  0  0  0  0
122124  1  0  0  0  0
123125  1  0  0  0  0
124126  2  0  0  0  0
124127  1  0  0  0  0
127128  1  1  0  0  0
127129  1  0  0  0  0
128130  1  0  0  0  0
129131  1  0  0  0  0
130132  2  0  0  0  0
130133  1  0  0  0  0
131134  2  0  0  0  0
131135  1  0  0  0  0
133136  1  6  0  0  0
133137  1  0  0  0  0
134138  1  0  0  0  0
135139  2  0  0  0  0
136140  1  0  0  0  0
137141  1  0  0  0  0
138142  2  0  0  0  0
140143  2  0  0  0  0
140144  1  0  0  0  0
141145  2  0  0  0  0
141146  1  0  0  0  0
144147  1  1  0  0  0
144148  1  0  0  0  0
145149  1  0  0  0  0
146150  2  0  0  0  0
147151  1  0  0  0  0
148152  1  0  0  0  0
149153  2  0  0  0  0
151154  2  0  0  0  0
151155  1  0  0  0  0
152156  2  0  0  0  0
152157  1  0  0  0  0
155158  1  6  0  0  0
155159  1  0  0  0  0
156160  1  0  0  0  0
157161  2  0  0  0  0
158162  1  0  0  0  0
159163  1  0  0  0  0
160164  2  0  0  0  0
162165  2  0  0  0  0
162166  1  0  0  0  0
164167  1  0  0  0  0
166168  1  1  0  0  0
166169  1  0  0  0  0
 21 23  1  0  0  0  0
 27 31  1  0  0  0  0
114117  1  0  0  0  0
139142  1  0  0  0  0
150153  1  0  0  0  0
161164  1  0  0  0  0
M  END
>  <MolRegNo>
1625063

>  <m>
=

>  <Value>
4000

>  <Unit>
nM

>  <Type>
Ki

>  <pValue>
5.4

>  <Ligand Efficiency>
0

>  <Binding Efficiency>
2.21

>  <Surface Efficiency>
0

>  <Assay Index>
831551

>  <Assay Category>


>  <Assay Organism>
Homo sapiens

>  <Target ID>
56

>  <Target Name>
Androgen Receptor

>  <Target Organism>
Homo sapiens

>  <Target Description>
Target is a single protein chain

>  <Sequence Accession>
P10275

>  <Reference>
Medchemcomm 4 (1), 187-192 (2013)

>  <Pubmed ID>


>  <DOI>
10.1039/C2MD20182H

$$$$
1625062
Actelion Java MolfileCreator 1.0

165169  0  0  0  0  0  0  0  0999 V2000
    0.0000   -0.0000   -0.0000 S   0  0  0  0  0  0  0  0  0  0  0  0
   -1.3172    0.7595   -0.0000 C   0  0  0  0  0  0  0  0  0  0  0  0
   -1.3290    2.2665   -0.0000 C   0  0  0  0  0  0  0  0  0  0  0  0
   -2.6344    3.0260   -0.0000 N   0  0  0  0  0  0  0  0  0  0  0  0
   -0.0356    3.0260   -0.0000 C   0  0  0  0  0  0  0  0  0  0  0  0
   -3.9515    2.2902   -0.0000 C   0  0  0  0  0  0  0  0  0  0  0  0
   -0.0475    4.5449   -0.0000 O   0  0  0  0  0  0  0  0  0  0  0  0
    1.2460    2.2902   -0.0000 O   0  0  0  0  0  0  0  0  0  0  0  0
   -3.9634    0.8069   -0.0000 O   0  0  0  0  0  0  0  0  0  0  0  0
   -5.2569    3.0497   -0.0000 C   0  0  0  0  0  0  0  0  0  0  0  0
   -6.5740    2.3140   -0.0000 N   0  0  0  0  0  0  0  0  0  0  0  0
   -5.2687    4.5567   -0.0000 C   0  0  0  0  0  0  0  0  0  0  0  0
   -7.8794    3.0734   -0.0000 C   0  0  0  0  0  0  0  0  0  0  0  0
   -3.9871    5.3162   -0.0000 C   0  0  0  0  0  0  0  0  0  0  0  0
   -7.8912    4.5805   -0.0000 O   0  0  0  0  0  0  0  0  0  0  0  0
   -9.1965    2.3377   -0.0000 C   0  0  0  0  0  0  0  0  0  0  0  0
   -3.8447    6.8232   -0.0000 C   0  0  0  0  0  0  0  0  0  0  0  0
   -2.6225    4.7229   -0.0000 C   0  0  0  0  0  0  0  0  0  0  0  0
  -10.5019    3.0972   -0.0000 N   0  0  0  0  0  0  0  0  0  0  0  0
   -9.2084    0.8544   -0.0000 C   0  0  0  0  0  0  0  0  0  0  0  0
   -2.3852    7.1436   -0.0000 C   0  0  0  0  0  0  0  0  0  0  0  0
   -4.8653    7.9506   -0.0000 C   0  0  0  0  0  0  0  0  0  0  0  0
   -1.6376    5.8502   -0.0000 N   0  0  0  0  0  0  0  0  0  0  0  0
  -11.8190    2.3614   -0.0000 C   0  0  0  0  0  0  0  0  0  0  0  0
   -7.9150    0.1068   -0.0000 C   0  0  0  0  0  0  0  0  0  0  0  0
   -1.9342    8.5795   -0.0000 C   0  0  0  0  0  0  0  0  0  0  0  0
   -4.4143    9.3864   -0.0000 C   0  0  0  0  0  0  0  0  0  0  0  0
  -11.8309    0.8781   -0.0000 O   0  0  0  0  0  0  0  0  0  0  0  0
  -13.1244    3.1209   -0.0000 C   0  0  0  0  0  0  0  0  0  0  0  0
   -7.9268   -1.3765   -0.0000 C   0  0  0  0  0  0  0  0  0  0  0  0
   -2.9548    9.7068   -0.0000 C   0  0  0  0  0  0  0  0  0  0  0  0
  -14.4415    2.3852   -0.0000 N   0  0  0  0  0  0  0  0  0  0  0  0
  -13.1362    4.6279   -0.0000 C   0  0  0  0  0  0  0  0  0  0  0  0
   -6.6452   -2.1122   -0.0000 O   0  0  0  0  0  0  0  0  0  0  0  0
   -9.2321   -2.1122   -0.0000 O   0  0  0  0  0  0  0  0  0  0  0  0
  -15.7468    3.1446   -0.0000 C   0  0  0  0  0  0  0  0  0  0  0  0
  -11.8546    5.3874   -0.0000 C   0  0  0  0  0  0  0  0  0  0  0  0
  -15.7587    4.6517   -0.0000 O   0  0  0  0  0  0  0  0  0  0  0  0
  -17.0522    2.4089   -0.0000 C   0  0  0  0  0  0  0  0  0  0  0  0
  -11.8665    6.8944   -0.0000 C   0  0  0  0  0  0  0  0  0  0  0  0
  -18.3575    3.1684   -0.0000 N   0  0  0  0  0  0  0  0  0  0  0  0
  -17.0640    0.9256   -0.0000 C   0  0  0  0  0  0  0  0  0  0  0  0
  -10.5849    7.6539   -0.0000 C   0  0  0  0  0  0  0  0  0  0  0  0
  -19.6628    2.4326   -0.0000 C   0  0  0  0  0  0  0  0  0  0  0  0
  -15.7824    0.1899   -0.0000 S   0  0  0  0  0  0  0  0  0  0  0  0
  -10.5968    9.1609   -0.0000 N   0  0  0  0  0  0  0  0  0  0  0  0
  -19.6747    0.9493   -0.0000 O   0  0  0  0  0  0  0  0  0  0  0  0
  -20.9681    3.1921   -0.0000 C   0  0  0  0  0  0  0  0  0  0  0  0
  -22.2734    2.4564   -0.0000 N   0  0  0  0  0  0  0  0  0  0  0  0
  -20.9800    4.6991   -0.0000 C   0  0  0  0  0  0  0  0  0  0  0  0
  -23.5787    3.2158   -0.0000 C   0  0  0  0  0  0  0  0  0  0  0  0
  -19.6984    5.4586   -0.0000 O   0  0  0  0  0  0  0  0  0  0  0  0
  -22.2853    5.4705   -0.0000 C   0  0  0  0  0  0  0  0  0  0  0  0
  -23.5906    4.7229   -0.0000 O   0  0  0  0  0  0  0  0  0  0  0  0
  -24.8959    2.4682   -0.0000 C   0  0  0  0  0  0  0  0  0  0  0  0
  -26.2012    3.2277   -0.0000 N   0  0  0  0  0  0  0  0  0  0  0  0
  -24.9078    0.9849   -0.0000 C   0  0  0  0  0  0  0  0  0  0  0  0
  -27.5184    2.4801   -0.0000 C   0  0  0  0  0  0  0  0  0  0  0  0
  -23.6143    0.2492   -0.0000 C   0  0  0  0  0  0  0  0  0  0  0  0
  -27.5303    0.9968   -0.0000 O   0  0  0  0  0  0  0  0  0  0  0  0
  -28.8237    3.2396   -0.0000 C   0  0  0  0  0  0  0  0  0  0  0  0
  -23.6262   -1.2341   -0.0000 C   0  0  0  0  0  0  0  0  0  0  0  0
  -30.1409    2.5038   -0.0000 N   0  0  0  0  0  0  0  0  0  0  0  0
  -28.8356    4.7466   -0.0000 C   0  0  0  0  0  0  0  0  0  0  0  0
  -22.3328   -1.9698   -0.0000 O   0  0  0  0  0  0  0  0  0  0  0  0
  -24.9315   -1.9698   -0.0000 O   0  0  0  0  0  0  0  0  0  0  0  0
  -31.4462    3.2633   -0.0000 C   0  0  0  0  0  0  0  0  0  0  0  0
  -27.5540    5.5061   -0.0000 C   0  0  0  0  0  0  0  0  0  0  0  0
  -31.4581    4.7703   -0.0000 O   0  0  0  0  0  0  0  0  0  0  0  0
  -32.7634    2.5276   -0.0000 C   0  0  0  0  0  0  0  0  0  0  0  0
  -27.5659    7.0131   -0.0000 C   0  0  0  0  0  0  0  0  0  0  0  0
  -34.0687    3.2870   -0.0000 N   0  0  0  0  0  0  0  0  0  0  0  0
  -32.7753    1.0443   -0.0000 C   0  0  0  0  0  0  0  0  0  0  0  0
  -26.2843    7.7726   -0.0000 O   0  0  0  0  0  0  0  0  0  0  0  0
  -28.8712    7.7726   -0.0000 O   0  0  0  0  0  0  0  0  0  0  0  0
  -35.3859    2.5513   -0.0000 C   0  0  0  0  0  0  0  0  0  0  0  0
  -31.4818    0.3085   -0.0000 C   0  0  0  0  0  0  0  0  0  0  0  0
  -35.3978    1.0680   -0.0000 O   0  0  0  0  0  0  0  0  0  0  0  0
  -36.6912    3.3108   -0.0000 C   0  0  0  0  0  0  0  0  0  0  0  0
  -31.4937   -1.1748   -0.0000 O   0  0  0  0  0  0  0  0  0  0  0  0
  -30.2002    1.0680   -0.0000 O   0  0  0  0  0  0  0  0  0  0  0  0
  -38.0084    2.5750   -0.0000 N   0  0  0  0  0  0  0  0  0  0  0  0
  -36.7031    4.8178   -0.0000 C   0  0  0  0  0  0  0  0  0  0  0  0
  -39.3137    3.3345   -0.0000 C   0  0  0  0  0  0  0  0  0  0  0  0
  -35.4215    5.5773   -0.0000 C   0  0  0  0  0  0  0  0  0  0  0  0
  -39.3256    4.8415   -0.0000 O   0  0  0  0  0  0  0  0  0  0  0  0
  -40.6309    2.5988   -0.0000 C   0  0  0  0  0  0  0  0  0  0  0  0
  -35.4334    7.0962   -0.0000 O   0  0  0  0  0  0  0  0  0  0  0  0
  -34.1399    4.8415   -0.0000 N   0  0  0  0  0  0  0  0  0  0  0  0
  -41.9362    3.3582   -0.0000 N   0  0  0  0  0  0  0  0  0  0  0  0
  -43.2534    2.6106   -0.0000 C   0  0  0  0  0  0  0  0  0  0  0  0
  -43.2653    1.1273   -0.0000 O   0  0  0  0  0  0  0  0  0  0  0  0
  -44.5587    3.3701   -0.0000 C   0  0  0  0  0  0  0  0  0  0  0  0
  -45.8759    2.6225   -0.0000 N   0  0  0  0  0  0  0  0  0  0  0  0
  -44.5706    4.8771   -0.0000 C   0  0  0  0  0  0  0  0  0  0  0  0
  -47.1812    3.3820   -0.0000 C   0  0  0  0  0  0  0  0  0  0  0  0
  -43.2890    5.6366   -0.0000 C   0  0  0  0  0  0  0  0  0  0  0  0
  -47.1931    4.8890   -0.0000 O   0  0  0  0  0  0  0  0  0  0  0  0
  -48.4865    2.6462   -0.0000 C   0  0  0  0  0  0  0  0  0  0  0  0
  -43.3009    7.1436   -0.0000 C   0  0  0  0  0  0  0  0  0  0  0  0
  -49.7918    3.4057   -0.0000 N   0  0  0  0  0  0  0  0  0  0  0  0
  -48.4984    1.1629   -0.0000 C   0  0  0  0  0  0  0  0  0  0  0  0
  -42.0193    7.9031   -0.0000 O   0  0  0  0  0  0  0  0  0  0  0  0
  -44.6180    7.9031   -0.0000 O   0  0  0  0  0  0  0  0  0  0  0  0
  -51.0972    2.6700   -0.0000 C   0  0  0  0  0  0  0  0  0  0  0  0
  -47.2168    0.4272   -0.0000 C   0  0  0  0  0  0  0  0  0  0  0  0
  -51.1090    1.1867   -0.0000 O   0  0  0  0  0  0  0  0  0  0  0  0
  -52.4025    3.4294   -0.0000 C   0  0  0  0  0  0  0  0  0  0  0  0
  -45.9234    1.1985   -0.0000 C   0  0  0  0  0  0  0  0  0  0  0  0
  -47.2287   -1.0561   -0.0000 C   0  0  0  0  0  0  0  0  0  0  0  0
  -53.7078    2.6937   -0.0000 N   0  0  0  0  0  0  0  0  0  0  0  0
  -52.4143    4.9365   -0.0000 C   0  0  0  0  0  0  0  0  0  0  0  0
  -44.6299    0.4628   -0.0000 C   0  0  0  0  0  0  0  0  0  0  0  0
  -45.9352   -1.7918   -0.0000 C   0  0  0  0  0  0  0  0  0  0  0  0
  -55.0131    3.4532   -0.0000 C   0  0  0  0  0  0  0  0  0  0  0  0
  -51.1328    5.6959   -0.0000 C   0  0  0  0  0  0  0  0  0  0  0  0
  -44.6418   -1.0205   -0.0000 C   0  0  0  0  0  0  0  0  0  0  0  0
  -55.0250    4.9721   -0.0000 O   0  0  0  0  0  0  0  0  0  0  0  0
  -56.3184    2.7174   -0.0000 C   0  0  0  0  0  0  0  0  0  0  0  0
  -51.1446    7.2030   -0.0000 C   0  0  0  0  0  0  0  0  0  0  0  0
  -49.8512    4.9602   -0.0000 C   0  0  0  0  0  0  0  0  0  0  0  0
  -57.6237    3.4769   -0.0000 N   0  0  0  0  0  0  0  0  0  0  0  0
  -56.3303    1.2341   -0.0000 C   0  0  0  0  0  0  0  0  0  0  0  0
  -58.9409    2.7412   -0.0000 C   0  0  0  0  0  0  0  0  0  0  0  0
  -55.0487    0.4865   -0.0000 S   0  0  0  0  0  0  0  0  0  0  0  0
  -58.9528    1.2578   -0.0000 O   0  0  0  0  0  0  0  0  0  0  0  0
  -60.2462    3.5006   -0.0000 C   0  0  0  0  0  0  0  0  0  0  0  0
  -61.5634    2.7649   -0.0000 N   0  0  0  0  0  0  0  0  0  0  0  0
  -60.2581    5.0195   -0.0000 C   0  0  0  0  0  0  0  0  0  0  0  0
  -62.8687    3.5244   -0.0000 C   0  0  0  0  0  0  0  0  0  0  0  0
  -58.9765    5.7790   -0.0000 C   0  0  0  0  0  0  0  0  0  0  0  0
  -61.5753    5.7790   -0.0000 C   0  0  0  0  0  0  0  0  0  0  0  0
  -62.8806    5.0433   -0.0000 O   0  0  0  0  0  0  0  0  0  0  0  0
  -64.1859    2.7886   -0.0000 C   0  0  0  0  0  0  0  0  0  0  0  0
  -65.4912    3.5481   -0.0000 N   0  0  0  0  0  0  0  0  0  0  0  0
  -64.1978    1.3053   -0.0000 C   0  0  0  0  0  0  0  0  0  0  0  0
  -66.8084    2.8124   -0.0000 C   0  0  0  0  0  0  0  0  0  0  0  0
  -62.9043    0.5696   -0.0000 C   0  0  0  0  0  0  0  0  0  0  0  0
  -66.8203    1.3290   -0.0000 O   0  0  0  0  0  0  0  0  0  0  0  0
  -68.1137    3.5718   -0.0000 C   0  0  0  0  0  0  0  0  0  0  0  0
  -61.6227    1.3409   -0.0000 C   0  0  0  0  0  0  0  0  0  0  0  0
  -62.9162   -0.9137   -0.0000 C   0  0  0  0  0  0  0  0  0  0  0  0
  -69.4309    2.8361   -0.0000 N   0  0  0  0  0  0  0  0  0  0  0  0
  -68.1256    5.0789   -0.0000 C   0  0  0  0  0  0  0  0  0  0  0  0
  -60.3293    0.6052   -0.0000 C   0  0  0  0  0  0  0  0  0  0  0  0
  -61.6346   -1.6494   -0.0000 C   0  0  0  0  0  0  0  0  0  0  0  0
  -70.7362    3.5955   -0.0000 C   0  0  0  0  0  0  0  0  0  0  0  0
  -66.8440    5.8383   -0.0000 C   0  0  0  0  0  0  0  0  0  0  0  0
  -60.3412   -0.8781   -0.0000 C   0  0  0  0  0  0  0  0  0  0  0  0
  -70.7481    5.1026   -0.0000 O   0  0  0  0  0  0  0  0  0  0  0  0
  -72.0534    2.8598   -0.0000 C   0  0  0  0  0  0  0  0  0  0  0  0
  -66.8559    7.3454   -0.0000 C   0  0  0  0  0  0  0  0  0  0  0  0
  -65.5624    5.1026   -0.0000 C   0  0  0  0  0  0  0  0  0  0  0  0
  -73.3706    3.6193   -0.0000 N   0  0  0  0  0  0  0  0  0  0  0  0
  -72.0653    1.3765   -0.0000 C   0  0  0  0  0  0  0  0  0  0  0  0
  -65.5743    8.1048   -0.0000 C   0  0  0  0  0  0  0  0  0  0  0  0
  -64.2808    5.8739   -0.0000 C   0  0  0  0  0  0  0  0  0  0  0  0
  -74.6759    2.8836   -0.0000 C   0  0  0  0  0  0  0  0  0  0  0  0
  -70.7718    0.6408   -0.0000 S   0  0  0  0  0  0  0  0  0  0  0  0
  -64.2927    7.3691   -0.0000 C   0  0  0  0  0  0  0  0  0  0  0  0
  -74.6878    1.4002   -0.0000 O   0  0  0  0  0  0  0  0  0  0  0  0
  -75.9931    3.6430   -0.0000 C   0  0  0  0  0  0  0  0  0  0  0  0
  -62.9993    8.1286   -0.0000 O   0  0  0  0  0  0  0  0  0  0  0  0
  -77.2984    2.9073   -0.0000 N   0  0  0  0  0  0  0  0  0  0  0  0
  -76.0049    5.1501   -0.0000 C   0  0  0  0  0  0  0  0  0  0  0  0
  1  2  1  0  0  0  0
  2  3  1  0  0  0  0
  3  4  1  6  0  0  0
  3  5  1  0  0  0  0
  4  6  1  0  0  0  0
  5  7  2  0  0  0  0
  5  8  1  0  0  0  0
  6  9  2  0  0  0  0
  6 10  1  0  0  0  0
 10 11  1  1  0  0  0
 10 12  1  0  0  0  0
 11 13  1  0  0  0  0
 12 14  1  0  0  0  0
 13 15  2  0  0  0  0
 13 16  1  0  0  0  0
 14 17  1  0  0  0  0
 14 18  2  0  0  0  0
 16 19  1  6  0  0  0
 16 20  1  0  0  0  0
 17 21  2  0  0  0  0
 17 22  1  0  0  0  0
 18 23  1  0  0  0  0
 19 24  1  0  0  0  0
 20 25  1  0  0  0  0
 21 26  1  0  0  0  0
 22 27  2  0  0  0  0
 24 28  2  0  0  0  0
 24 29  1  0  0  0  0
 25 30  1  0  0  0  0
 26 31  2  0  0  0  0
 29 32  1  1  0  0  0
 29 33  1  0  0  0  0
 30 34  2  0  0  0  0
 30 35  1  0  0  0  0
 32 36  1  0  0  0  0
 33 37  1  0  0  0  0
 36 38  2  0  0  0  0
 36 39  1  0  0  0  0
 37 40  1  0  0  0  0
 39 41  1  6  0  0  0
 39 42  1  0  0  0  0
 40 43  1  0  0  0  0
 41 44  1  0  0  0  0
 42 45  1  0  0  0  0
 43 46  1  0  0  0  0
 44 47  2  0  0  0  0
 44 48  1  0  0  0  0
 48 49  1  1  0  0  0
 48 50  1  0  0  0  0
 49 51  1  0  0  0  0
 50 52  1  1  0  0  0
 50 53  1  0  0  0  0
 51 54  2  0  0  0  0
 51 55  1  0  0  0  0
 55 56  1  6  0  0  0
 55 57  1  0  0  0  0
 56 58  1  0  0  0  0
 57 59  1  0  0  0  0
 58 60  2  0  0  0  0
 58 61  1  0  0  0  0
 59 62  1  0  0  0  0
 61 63  1  1  0  0  0
 61 64  1  0  0  0  0
 62 65  2  0  0  0  0
 62 66  1  0  0  0  0
 63 67  1  0  0  0  0
 64 68  1  0  0  0  0
 67 69  2  0  0  0  0
 67 70  1  0  0  0  0
 68 71  1  0  0  0  0
 70 72  1  6  0  0  0
 70 73  1  0  0  0  0
 71 74  2  0  0  0  0
 71 75  1  0  0  0  0
 72 76  1  0  0  0  0
 73 77  1  0  0  0  0
 76 78  2  0  0  0  0
 76 79  1  0  0  0  0
 77 80  2  0  0  0  0
 77 81  1  0  0  0  0
 79 82  1  1  0  0  0
 79 83  1  0  0  0  0
 82 84  1  0  0  0  0
 83 85  1  0  0  0  0
 84 86  2  0  0  0  0
 84 87  1  0  0  0  0
 85 88  2  0  0  0  0
 85 89  1  0  0  0  0
 87 90  1  0  0  0  0
 90 91  1  0  0  0  0
 91 92  2  0  0  0  0
 91 93  1  0  0  0  0
 93 94  1  1  0  0  0
 93 95  1  0  0  0  0
 94 96  1  0  0  0  0
 95 97  1  0  0  0  0
 96 98  2  0  0  0  0
 96 99  1  0  0  0  0
 97100  1  0  0  0  0
 99101  1  6  0  0  0
 99102  1  0  0  0  0
100103  2  0  0  0  0
100104  1  0  0  0  0
101105  1  0  0  0  0
102106  1  0  0  0  0
105107  2  0  0  0  0
105108  1  0  0  0  0
106109  2  0  0  0  0
106110  1  0  0  0  0
108111  1  1  0  0  0
108112  1  0  0  0  0
109113  1  0  0  0  0
110114  2  0  0  0  0
111115  1  0  0  0  0
112116  1  0  0  0  0
113117  2  0  0  0  0
115118  2  0  0  0  0
115119  1  0  0  0  0
116120  1  0  0  0  0
116121  1  0  0  0  0
119122  1  6  0  0  0
119123  1  0  0  0  0
122124  1  0  0  0  0
123125  1  0  0  0  0
124126  2  0  0  0  0
124127  1  0  0  0  0
127128  1  1  0  0  0
127129  1  0  0  0  0
128130  1  0  0  0  0
129131  1  0  0  0  0
129132  1  0  0  0  0
130133  2  0  0  0  0
130134  1  0  0  0  0
134135  1  6  0  0  0
134136  1  0  0  0  0
135137  1  0  0  0  0
136138  1  0  0  0  0
137139  2  0  0  0  0
137140  1  0  0  0  0
138141  2  0  0  0  0
138142  1  0  0  0  0
140143  1  1  0  0  0
140144  1  0  0  0  0
141145  1  0  0  0  0
142146  2  0  0  0  0
143147  1  0  0  0  0
144148  1  0  0  0  0
145149  2  0  0  0  0
147150  2  0  0  0  0
147151  1  0  0  0  0
148152  2  0  0  0  0
148153  1  0  0  0  0
151154  1  6  0  0  0
151155  1  0  0  0  0
152156  1  0  0  0  0
153157  2  0  0  0  0
154158  1  0  0  0  0
155159  1  0  0  0  0
156160  2  0  0  0  0
158161  2  0  0  0  0
158162  1  0  0  0  0
160163  1  0  0  0  0
162164  1  1  0  0  0
162165  1  0  0  0  0
 21 23  1  0  0  0  0
 27 31  1  0  0  0  0
114117  1  0  0  0  0
146149  1  0  0  0  0
157160  1  0  0  0  0
M  END
>  <MolRegNo>
1625062

>  <m>
=

>  <Value>
3000

>  <Unit>
nM

>  <Type>
Ki

>  <pValue>
5.52

>  <Ligand Efficiency>
0

>  <Binding Efficiency>
2.31

>  <Surface Efficiency>
0

>  <Assay Index>
831551

>  <Assay Category>


>  <Assay Organism>
Homo sapiens

>  <Target ID>
56

>  <Target Name>
Androgen Receptor

>  <Target Organism>
Homo sapiens

>  <Target Description>
Target is a single protein chain

>  <Sequence Accession>
P10275

>  <Reference>
Medchemcomm 4 (1), 187-192 (2013)

>  <Pubmed ID>


>  <DOI>
10.1039/C2MD20182H

$$$$
1625093
Actelion Java MolfileCreator 1.0

167171  0  0  0  0  0  0  0  0999 V2000
    0.0000   -0.0000   -0.0000 S   0  0  0  0  0  0  0  0  0  0  0  0
   -1.3137    0.7574   -0.0000 C   0  0  0  0  0  0  0  0  0  0  0  0
   -1.3255    2.2605   -0.0000 C   0  0  0  0  0  0  0  0  0  0  0  0
   -2.6273    3.0179   -0.0000 N   0  0  0  0  0  0  0  0  0  0  0  0
   -0.0355    3.0179   -0.0000 C   0  0  0  0  0  0  0  0  0  0  0  0
   -3.9410    2.2841   -0.0000 C   0  0  0  0  0  0  0  0  0  0  0  0
   -0.0473    4.5328   -0.0000 O   0  0  0  0  0  0  0  0  0  0  0  0
    1.2545    2.2841   -0.0000 O   0  0  0  0  0  0  0  0  0  0  0  0
   -3.9529    0.8048   -0.0000 O   0  0  0  0  0  0  0  0  0  0  0  0
   -5.2429    3.0416   -0.0000 C   0  0  0  0  0  0  0  0  0  0  0  0
   -6.5565    2.3078   -0.0000 N   0  0  0  0  0  0  0  0  0  0  0  0
   -5.2547    4.5564   -0.0000 C   0  0  0  0  0  0  0  0  0  0  0  0
   -7.8584    3.0652   -0.0000 C   0  0  0  0  0  0  0  0  0  0  0  0
   -3.9765    5.3139   -0.0000 C   0  0  0  0  0  0  0  0  0  0  0  0
   -7.8702    4.5801   -0.0000 O   0  0  0  0  0  0  0  0  0  0  0  0
   -9.1720    2.3315   -0.0000 C   0  0  0  0  0  0  0  0  0  0  0  0
   -3.8345    6.8169   -0.0000 C   0  0  0  0  0  0  0  0  0  0  0  0
   -2.6155    4.7103   -0.0000 C   0  0  0  0  0  0  0  0  0  0  0  0
  -10.4857    3.0889   -0.0000 N   0  0  0  0  0  0  0  0  0  0  0  0
   -9.1839    0.8521   -0.0000 C   0  0  0  0  0  0  0  0  0  0  0  0
   -2.3788    7.1364   -0.0000 C   0  0  0  0  0  0  0  0  0  0  0  0
   -4.8523    7.9412   -0.0000 C   0  0  0  0  0  0  0  0  0  0  0  0
   -1.6214    5.8464   -0.0000 N   0  0  0  0  0  0  0  0  0  0  0  0
  -11.7994    2.3551   -0.0000 C   0  0  0  0  0  0  0  0  0  0  0  0
   -7.8939    0.1183   -0.0000 C   0  0  0  0  0  0  0  0  0  0  0  0
   -1.9291    8.5803   -0.0000 C   0  0  0  0  0  0  0  0  0  0  0  0
   -4.4026    9.3851   -0.0000 C   0  0  0  0  0  0  0  0  0  0  0  0
  -11.8112    0.8758   -0.0000 O   0  0  0  0  0  0  0  0  0  0  0  0
  -13.1131    3.1126   -0.0000 C   0  0  0  0  0  0  0  0  0  0  0  0
   -7.9057   -1.3610   -0.0000 C   0  0  0  0  0  0  0  0  0  0  0  0
   -2.9469    9.7046   -0.0000 C   0  0  0  0  0  0  0  0  0  0  0  0
  -14.4267    2.3788   -0.0000 N   0  0  0  0  0  0  0  0  0  0  0  0
  -13.1249    4.6274   -0.0000 C   0  0  0  0  0  0  0  0  0  0  0  0
   -6.6157   -2.0948   -0.0000 O   0  0  0  0  0  0  0  0  0  0  0  0
   -9.2194   -2.0948   -0.0000 O   0  0  0  0  0  0  0  0  0  0  0  0
  -15.7404    3.1362   -0.0000 C   0  0  0  0  0  0  0  0  0  0  0  0
  -11.8349    5.3849   -0.0000 C   0  0  0  0  0  0  0  0  0  0  0  0
  -15.7523    4.6511   -0.0000 O   0  0  0  0  0  0  0  0  0  0  0  0
  -17.0541    2.3907   -0.0000 C   0  0  0  0  0  0  0  0  0  0  0  0
  -11.8467    6.8997   -0.0000 C   0  0  0  0  0  0  0  0  0  0  0  0
  -18.3559    3.1481   -0.0000 N   0  0  0  0  0  0  0  0  0  0  0  0
  -17.0659    0.9113   -0.0000 C   0  0  0  0  0  0  0  0  0  0  0  0
  -10.5686    7.6572   -0.0000 C   0  0  0  0  0  0  0  0  0  0  0  0
  -19.6696    2.4143   -0.0000 C   0  0  0  0  0  0  0  0  0  0  0  0
  -15.7759    0.1775   -0.0000 S   0  0  0  0  0  0  0  0  0  0  0  0
  -10.5804    9.1720   -0.0000 N   0  0  0  0  0  0  0  0  0  0  0  0
  -19.6814    0.9350   -0.0000 O   0  0  0  0  0  0  0  0  0  0  0  0
  -20.9714    3.1718   -0.0000 C   0  0  0  0  0  0  0  0  0  0  0  0
  -22.2851    2.4262   -0.0000 N   0  0  0  0  0  0  0  0  0  0  0  0
  -20.9833    4.6866   -0.0000 C   0  0  0  0  0  0  0  0  0  0  0  0
  -23.5870    3.1836   -0.0000 C   0  0  0  0  0  0  0  0  0  0  0  0
  -19.7051    5.4559   -0.0000 O   0  0  0  0  0  0  0  0  0  0  0  0
  -22.2970    5.4559   -0.0000 C   0  0  0  0  0  0  0  0  0  0  0  0
  -23.5988    4.6985   -0.0000 O   0  0  0  0  0  0  0  0  0  0  0  0
  -24.9006    2.4498   -0.0000 C   0  0  0  0  0  0  0  0  0  0  0  0
  -26.2143    3.2073   -0.0000 N   0  0  0  0  0  0  0  0  0  0  0  0
  -24.9125    0.9705   -0.0000 C   0  0  0  0  0  0  0  0  0  0  0  0
  -27.5280    2.4735   -0.0000 C   0  0  0  0  0  0  0  0  0  0  0  0
  -23.6225    0.2367   -0.0000 C   0  0  0  0  0  0  0  0  0  0  0  0
  -27.5398    0.9941   -0.0000 O   0  0  0  0  0  0  0  0  0  0  0  0
  -28.8417    3.2309   -0.0000 C   0  0  0  0  0  0  0  0  0  0  0  0
  -23.6343   -1.2427   -0.0000 C   0  0  0  0  0  0  0  0  0  0  0  0
  -30.1553    2.4972   -0.0000 N   0  0  0  0  0  0  0  0  0  0  0  0
  -28.8535    4.7458   -0.0000 C   0  0  0  0  0  0  0  0  0  0  0  0
  -22.3443   -1.9764   -0.0000 O   0  0  0  0  0  0  0  0  0  0  0  0
  -24.9480   -1.9764   -0.0000 O   0  0  0  0  0  0  0  0  0  0  0  0
  -31.4690    3.2546   -0.0000 C   0  0  0  0  0  0  0  0  0  0  0  0
  -27.5635    5.5032   -0.0000 C   0  0  0  0  0  0  0  0  0  0  0  0
  -31.4808    4.7695   -0.0000 O   0  0  0  0  0  0  0  0  0  0  0  0
  -32.7827    2.5208   -0.0000 C   0  0  0  0  0  0  0  0  0  0  0  0
  -27.5753    7.0181   -0.0000 C   0  0  0  0  0  0  0  0  0  0  0  0
  -34.0845    3.2783   -0.0000 N   0  0  0  0  0  0  0  0  0  0  0  0
  -32.7945    1.0415   -0.0000 C   0  0  0  0  0  0  0  0  0  0  0  0
  -26.2972    7.7755   -0.0000 O   0  0  0  0  0  0  0  0  0  0  0  0
  -28.8890    7.7755   -0.0000 O   0  0  0  0  0  0  0  0  0  0  0  0
  -35.4100    2.5445   -0.0000 C   0  0  0  0  0  0  0  0  0  0  0  0
  -31.5045    0.3077   -0.0000 C   0  0  0  0  0  0  0  0  0  0  0  0
  -35.4219    1.0651   -0.0000 O   0  0  0  0  0  0  0  0  0  0  0  0
  -36.7000    3.3019   -0.0000 C   0  0  0  0  0  0  0  0  0  0  0  0
  -31.5163   -1.1717   -0.0000 O   0  0  0  0  0  0  0  0  0  0  0  0
  -30.2145    1.0651   -0.0000 O   0  0  0  0  0  0  0  0  0  0  0  0
  -38.0137    2.5682   -0.0000 N   0  0  0  0  0  0  0  0  0  0  0  0
  -36.7119    4.8168   -0.0000 C   0  0  0  0  0  0  0  0  0  0  0  0
  -39.3274    3.3256   -0.0000 C   0  0  0  0  0  0  0  0  0  0  0  0
  -35.4455    5.5742   -0.0000 C   0  0  0  0  0  0  0  0  0  0  0  0
  -39.3392    4.8405   -0.0000 O   0  0  0  0  0  0  0  0  0  0  0  0
  -40.6292    2.5918   -0.0000 C   0  0  0  0  0  0  0  0  0  0  0  0
  -35.4574    7.0891   -0.0000 C   0  0  0  0  0  0  0  0  0  0  0  0
  -41.9429    3.3493   -0.0000 N   0  0  0  0  0  0  0  0  0  0  0  0
  -34.1674    7.8465   -0.0000 O   0  0  0  0  0  0  0  0  0  0  0  0
  -36.7592    7.8465   -0.0000 O   0  0  0  0  0  0  0  0  0  0  0  0
  -43.2447    2.6155   -0.0000 C   0  0  0  0  0  0  0  0  0  0  0  0
  -43.2566    1.1362   -0.0000 O   0  0  0  0  0  0  0  0  0  0  0  0
  -44.5466    3.3729   -0.0000 C   0  0  0  0  0  0  0  0  0  0  0  0
  -45.8602    2.6392   -0.0000 N   0  0  0  0  0  0  0  0  0  0  0  0
  -44.5584    4.8878   -0.0000 C   0  0  0  0  0  0  0  0  0  0  0  0
  -47.1621    3.3966   -0.0000 C   0  0  0  0  0  0  0  0  0  0  0  0
  -43.2802    5.6452   -0.0000 C   0  0  0  0  0  0  0  0  0  0  0  0
  -47.1739    4.9115   -0.0000 O   0  0  0  0  0  0  0  0  0  0  0  0
  -48.4758    2.6629   -0.0000 C   0  0  0  0  0  0  0  0  0  0  0  0
  -43.2921    7.1601   -0.0000 C   0  0  0  0  0  0  0  0  0  0  0  0
  -49.7776    3.4203   -0.0000 N   0  0  0  0  0  0  0  0  0  0  0  0
  -48.4876    1.1835   -0.0000 C   0  0  0  0  0  0  0  0  0  0  0  0
  -42.0021    7.9175   -0.0000 O   0  0  0  0  0  0  0  0  0  0  0  0
  -44.6057    7.9175   -0.0000 O   0  0  0  0  0  0  0  0  0  0  0  0
  -51.0913    2.6865   -0.0000 C   0  0  0  0  0  0  0  0  0  0  0  0
  -47.1976    0.4497   -0.0000 C   0  0  0  0  0  0  0  0  0  0  0  0
  -51.1031    1.2072   -0.0000 O   0  0  0  0  0  0  0  0  0  0  0  0
  -52.3931    3.4440   -0.0000 C   0  0  0  0  0  0  0  0  0  0  0  0
  -45.9076    1.2190   -0.0000 C   0  0  0  0  0  0  0  0  0  0  0  0
  -47.2094   -1.0296   -0.0000 C   0  0  0  0  0  0  0  0  0  0  0  0
  -53.7068    2.7102   -0.0000 N   0  0  0  0  0  0  0  0  0  0  0  0
  -52.4049    4.9588   -0.0000 C   0  0  0  0  0  0  0  0  0  0  0  0
  -44.6294    0.4852   -0.0000 C   0  0  0  0  0  0  0  0  0  0  0  0
  -45.9194   -1.7634   -0.0000 C   0  0  0  0  0  0  0  0  0  0  0  0
  -55.0205    3.4676   -0.0000 C   0  0  0  0  0  0  0  0  0  0  0  0
  -51.1268    5.7163   -0.0000 C   0  0  0  0  0  0  0  0  0  0  0  0
  -44.6412   -1.0060   -0.0000 C   0  0  0  0  0  0  0  0  0  0  0  0
  -55.0323    4.9825   -0.0000 O   0  0  0  0  0  0  0  0  0  0  0  0
  -56.3341    2.7339   -0.0000 C   0  0  0  0  0  0  0  0  0  0  0  0
  -51.1386    7.2311   -0.0000 C   0  0  0  0  0  0  0  0  0  0  0  0
  -49.8368    4.9825   -0.0000 C   0  0  0  0  0  0  0  0  0  0  0  0
  -57.6478    3.4913   -0.0000 N   0  0  0  0  0  0  0  0  0  0  0  0
  -56.3460    1.2545   -0.0000 C   0  0  0  0  0  0  0  0  0  0  0  0
  -58.9615    2.7575   -0.0000 C   0  0  0  0  0  0  0  0  0  0  0  0
  -55.0560    0.5207   -0.0000 S   0  0  0  0  0  0  0  0  0  0  0  0
  -58.9733    1.2782   -0.0000 O   0  0  0  0  0  0  0  0  0  0  0  0
  -60.2752    3.5150   -0.0000 C   0  0  0  0  0  0  0  0  0  0  0  0
  -61.5888    2.7812   -0.0000 N   0  0  0  0  0  0  0  0  0  0  0  0
  -60.2870    5.0298   -0.0000 C   0  0  0  0  0  0  0  0  0  0  0  0
  -62.8907    3.5386   -0.0000 C   0  0  0  0  0  0  0  0  0  0  0  0
  -58.9970    5.7873   -0.0000 C   0  0  0  0  0  0  0  0  0  0  0  0
  -62.9025    5.0535   -0.0000 O   0  0  0  0  0  0  0  0  0  0  0  0
  -64.2043    2.8049   -0.0000 C   0  0  0  0  0  0  0  0  0  0  0  0
  -59.0088    7.3021   -0.0000 O   0  0  0  0  0  0  0  0  0  0  0  0
  -57.7188    5.0535   -0.0000 N   0  0  0  0  0  0  0  0  0  0  0  0
  -65.5062    3.5623   -0.0000 N   0  0  0  0  0  0  0  0  0  0  0  0
  -64.2162    1.3255   -0.0000 C   0  0  0  0  0  0  0  0  0  0  0  0
  -66.8199    2.8285   -0.0000 C   0  0  0  0  0  0  0  0  0  0  0  0
  -62.9262    0.5917   -0.0000 C   0  0  0  0  0  0  0  0  0  0  0  0
  -66.8317    1.3492   -0.0000 O   0  0  0  0  0  0  0  0  0  0  0  0
  -68.1217    3.5860   -0.0000 C   0  0  0  0  0  0  0  0  0  0  0  0
  -61.6480    1.3610   -0.0000 C   0  0  0  0  0  0  0  0  0  0  0  0
  -62.9380   -0.8876   -0.0000 C   0  0  0  0  0  0  0  0  0  0  0  0
  -69.4354    2.8522   -0.0000 N   0  0  0  0  0  0  0  0  0  0  0  0
  -68.1335    5.1008   -0.0000 C   0  0  0  0  0  0  0  0  0  0  0  0
  -60.3580    0.6272   -0.0000 C   0  0  0  0  0  0  0  0  0  0  0  0
  -61.6480   -1.6214   -0.0000 C   0  0  0  0  0  0  0  0  0  0  0  0
  -70.7490    3.6096   -0.0000 C   0  0  0  0  0  0  0  0  0  0  0  0
  -66.8554    5.8583   -0.0000 C   0  0  0  0  0  0  0  0  0  0  0  0
  -60.3698   -0.8639   -0.0000 C   0  0  0  0  0  0  0  0  0  0  0  0
  -70.7609    5.1245   -0.0000 O   0  0  0  0  0  0  0  0  0  0  0  0
  -72.0627    2.8759   -0.0000 C   0  0  0  0  0  0  0  0  0  0  0  0
  -66.8672    7.3731   -0.0000 C   0  0  0  0  0  0  0  0  0  0  0  0
  -65.5654    5.1245   -0.0000 C   0  0  0  0  0  0  0  0  0  0  0  0
  -73.3764    3.6333   -0.0000 N   0  0  0  0  0  0  0  0  0  0  0  0
  -72.0745    1.3847   -0.0000 C   0  0  0  0  0  0  0  0  0  0  0  0
  -65.5772    8.1306   -0.0000 C   0  0  0  0  0  0  0  0  0  0  0  0
  -64.2872    5.8819   -0.0000 C   0  0  0  0  0  0  0  0  0  0  0  0
  -74.6782    2.8996   -0.0000 C   0  0  0  0  0  0  0  0  0  0  0  0
  -70.7845    0.6509   -0.0000 S   0  0  0  0  0  0  0  0  0  0  0  0
  -64.2990    7.3968   -0.0000 C   0  0  0  0  0  0  0  0  0  0  0  0
  -74.6901    1.4084   -0.0000 O   0  0  0  0  0  0  0  0  0  0  0  0
  -75.9919    3.6570   -0.0000 C   0  0  0  0  0  0  0  0  0  0  0  0
  -63.0090    8.1542   -0.0000 O   0  0  0  0  0  0  0  0  0  0  0  0
  -77.3056    2.9232   -0.0000 N   0  0  0  0  0  0  0  0  0  0  0  0
  -76.0037    5.1719   -0.0000 C   0  0  0  0  0  0  0  0  0  0  0  0
  1  2  1  0  0  0  0
  2  3  1  0  0  0  0
  3  4  1  6  0  0  0
  3  5  1  0  0  0  0
  4  6  1  0  0  0  0
  5  7  2  0  0  0  0
  5  8  1  0  0  0  0
  6  9  2  0  0  0  0
  6 10  1  0  0  0  0
 10 11  1  1  0  0  0
 10 12  1  0  0  0  0
 11 13  1  0  0  0  0
 12 14  1  0  0  0  0
 13 15  2  0  0  0  0
 13 16  1  0  0  0  0
 14 17  1  0  0  0  0
 14 18  2  0  0  0  0
 16 19  1  6  0  0  0
 16 20  1  0  0  0  0
 17 21  2  0  0  0  0
 17 22  1  0  0  0  0
 18 23  1  0  0  0  0
 19 24  1  0  0  0  0
 20 25  1  0  0  0  0
 21 26  1  0  0  0  0
 22 27  2  0  0  0  0
 24 28  2  0  0  0  0
 24 29  1  0  0  0  0
 25 30  1  0  0  0  0
 26 31  2  0  0  0  0
 29 32  1  1  0  0  0
 29 33  1  0  0  0  0
 30 34  2  0  0  0  0
 30 35  1  0  0  0  0
 32 36  1  0  0  0  0
 33 37  1  0  0  0  0
 36 38  2  0  0  0  0
 36 39  1  0  0  0  0
 37 40  1  0  0  0  0
 39 41  1  6  0  0  0
 39 42  1  0  0  0  0
 40 43  1  0  0  0  0
 41 44  1  0  0  0  0
 42 45  1  0  0  0  0
 43 46  1  0  0  0  0
 44 47  2  0  0  0  0
 44 48  1  0  0  0  0
 48 49  1  1  0  0  0
 48 50  1  0  0  0  0
 49 51  1  0  0  0  0
 50 52  1  1  0  0  0
 50 53  1  0  0  0  0
 51 54  2  0  0  0  0
 51 55  1  0  0  0  0
 55 56  1  6  0  0  0
 55 57  1  0  0  0  0
 56 58  1  0  0  0  0
 57 59  1  0  0  0  0
 58 60  2  0  0  0  0
 58 61  1  0  0  0  0
 59 62  1  0  0  0  0
 61 63  1  1  0  0  0
 61 64  1  0  0  0  0
 62 65  2  0  0  0  0
 62 66  1  0  0  0  0
 63 67  1  0  0  0  0
 64 68  1  0  0  0  0
 67 69  2  0  0  0  0
 67 70  1  0  0  0  0
 68 71  1  0  0  0  0
 70 72  1  6  0  0  0
 70 73  1  0  0  0  0
 71 74  2  0  0  0  0
 71 75  1  0  0  0  0
 72 76  1  0  0  0  0
 73 77  1  0  0  0  0
 76 78  2  0  0  0  0
 76 79  1  0  0  0  0
 77 80  2  0  0  0  0
 77 81  1  0  0  0  0
 79 82  1  1  0  0  0
 79 83  1  0  0  0  0
 82 84  1  0  0  0  0
 83 85  1  0  0  0  0
 84 86  2  0  0  0  0
 84 87  1  0  0  0  0
 85 88  1  0  0  0  0
 87 89  1  0  0  0  0
 88 90  2  0  0  0  0
 88 91  1  0  0  0  0
 89 92  1  0  0  0  0
 92 93  2  0  0  0  0
 92 94  1  0  0  0  0
 94 95  1  1  0  0  0
 94 96  1  0  0  0  0
 95 97  1  0  0  0  0
 96 98  1  0  0  0  0
 97 99  2  0  0  0  0
 97100  1  0  0  0  0
 98101  1  0  0  0  0
100102  1  6  0  0  0
100103  1  0  0  0  0
101104  2  0  0  0  0
101105  1  0  0  0  0
102106  1  0  0  0  0
103107  1  0  0  0  0
106108  2  0  0  0  0
106109  1  0  0  0  0
107110  2  0  0  0  0
107111  1  0  0  0  0
109112  1  1  0  0  0
109113  1  0  0  0  0
110114  1  0  0  0  0
111115  2  0  0  0  0
112116  1  0  0  0  0
113117  1  0  0  0  0
114118  2  0  0  0  0
116119  2  0  0  0  0
116120  1  0  0  0  0
117121  1  0  0  0  0
117122  1  0  0  0  0
120123  1  6  0  0  0
120124  1  0  0  0  0
123125  1  0  0  0  0
124126  1  0  0  0  0
125127  2  0  0  0  0
125128  1  0  0  0  0
128129  1  1  0  0  0
128130  1  0  0  0  0
129131  1  0  0  0  0
130132  1  0  0  0  0
131133  2  0  0  0  0
131134  1  0  0  0  0
132135  2  0  0  0  0
132136  1  0  0  0  0
134137  1  6  0  0  0
134138  1  0  0  0  0
137139  1  0  0  0  0
138140  1  0  0  0  0
139141  2  0  0  0  0
139142  1  0  0  0  0
140143  2  0  0  0  0
140144  1  0  0  0  0
142145  1  1  0  0  0
142146  1  0  0  0  0
143147  1  0  0  0  0
144148  2  0  0  0  0
145149  1  0  0  0  0
146150  1  0  0  0  0
147151  2  0  0  0  0
149152  2  0  0  0  0
149153  1  0  0  0  0
150154  2  0  0  0  0
150155  1  0  0  0  0
153156  1  6  0  0  0
153157  1  0  0  0  0
154158  1  0  0  0  0
155159  2  0  0  0  0
156160  1  0  0  0  0
157161  1  0  0  0  0
158162  2  0  0  0  0
160163  2  0  0  0  0
160164  1  0  0  0  0
162165  1  0  0  0  0
164166  1  1  0  0  0
164167  1  0  0  0  0
 21 23  1  0  0  0  0
 27 31  1  0  0  0  0
115118  1  0  0  0  0
148151  1  0  0  0  0
159162  1  0  0  0  0
M  END
>  <MolRegNo>
1625093

>  <m>
=

>  <Value>
200

>  <Unit>
nM

>  <Type>
Ki

>  <pValue>
6.7

>  <Ligand Efficiency>
0

>  <Binding Efficiency>
2.77

>  <Surface Efficiency>
0

>  <Assay Index>
831551

>  <Assay Category>


>  <Assay Organism>
Homo sapiens

>  <Target ID>
56

>  <Target Name>
Androgen Receptor

>  <Target Organism>
Homo sapiens

>  <Target Description>
Target is a single protein chain

>  <Sequence Accession>
P10275

>  <Reference>
Medchemcomm 4 (1), 187-192 (2013)

>  <Pubmed ID>


>  <DOI>
10.1039/C2MD20182H

$$$$
1625092
Actelion Java MolfileCreator 1.0

160162  0  0  0  0  0  0  0  0999 V2000
    0.0000   -0.0000   -0.0000 S   0  0  0  0  0  0  0  0  0  0  0  0
   -1.3129    0.7570   -0.0000 C   0  0  0  0  0  0  0  0  0  0  0  0
   -1.3247    2.2592   -0.0000 C   0  0  0  0  0  0  0  0  0  0  0  0
   -2.6258    3.0162   -0.0000 N   0  0  0  0  0  0  0  0  0  0  0  0
   -0.0355    3.0162   -0.0000 C   0  0  0  0  0  0  0  0  0  0  0  0
   -3.9387    2.2828   -0.0000 C   0  0  0  0  0  0  0  0  0  0  0  0
   -0.0473    4.5301   -0.0000 O   0  0  0  0  0  0  0  0  0  0  0  0
    1.2538    2.2828   -0.0000 O   0  0  0  0  0  0  0  0  0  0  0  0
   -3.9506    0.8043   -0.0000 O   0  0  0  0  0  0  0  0  0  0  0  0
   -5.2398    3.0398   -0.0000 C   0  0  0  0  0  0  0  0  0  0  0  0
   -6.5527    2.3065   -0.0000 N   0  0  0  0  0  0  0  0  0  0  0  0
   -5.2517    4.5538   -0.0000 C   0  0  0  0  0  0  0  0  0  0  0  0
   -7.8538    3.0635   -0.0000 C   0  0  0  0  0  0  0  0  0  0  0  0
   -3.9742    5.3108   -0.0000 C   0  0  0  0  0  0  0  0  0  0  0  0
   -7.8656    4.5775   -0.0000 O   0  0  0  0  0  0  0  0  0  0  0  0
   -9.1667    2.3301   -0.0000 C   0  0  0  0  0  0  0  0  0  0  0  0
   -3.8323    6.8130   -0.0000 C   0  0  0  0  0  0  0  0  0  0  0  0
   -2.6140    4.7076   -0.0000 C   0  0  0  0  0  0  0  0  0  0  0  0
  -10.4796    3.0871   -0.0000 N   0  0  0  0  0  0  0  0  0  0  0  0
   -9.1786    0.8516   -0.0000 C   0  0  0  0  0  0  0  0  0  0  0  0
   -2.3774    7.1323   -0.0000 C   0  0  0  0  0  0  0  0  0  0  0  0
   -4.8495    7.9366   -0.0000 C   0  0  0  0  0  0  0  0  0  0  0  0
   -1.6204    5.8431   -0.0000 N   0  0  0  0  0  0  0  0  0  0  0  0
  -11.7926    2.3538   -0.0000 C   0  0  0  0  0  0  0  0  0  0  0  0
   -7.8893    0.1183   -0.0000 C   0  0  0  0  0  0  0  0  0  0  0  0
   -1.9280    8.5753   -0.0000 C   0  0  0  0  0  0  0  0  0  0  0  0
   -4.4000    9.3796   -0.0000 C   0  0  0  0  0  0  0  0  0  0  0  0
  -11.8044    0.8753   -0.0000 O   0  0  0  0  0  0  0  0  0  0  0  0
  -13.1055    3.1108   -0.0000 C   0  0  0  0  0  0  0  0  0  0  0  0
   -7.9011   -1.3602   -0.0000 C   0  0  0  0  0  0  0  0  0  0  0  0
   -2.9452    9.6990   -0.0000 C   0  0  0  0  0  0  0  0  0  0  0  0
  -14.4184    2.3774   -0.0000 N   0  0  0  0  0  0  0  0  0  0  0  0
  -13.1173    4.6248   -0.0000 C   0  0  0  0  0  0  0  0  0  0  0  0
   -6.6119   -2.0936   -0.0000 O   0  0  0  0  0  0  0  0  0  0  0  0
   -9.2140   -2.0936   -0.0000 O   0  0  0  0  0  0  0  0  0  0  0  0
  -15.7313    3.1344   -0.0000 C   0  0  0  0  0  0  0  0  0  0  0  0
  -11.8280    5.3818   -0.0000 C   0  0  0  0  0  0  0  0  0  0  0  0
  -15.7431    4.6484   -0.0000 O   0  0  0  0  0  0  0  0  0  0  0  0
  -17.0442    2.3893   -0.0000 C   0  0  0  0  0  0  0  0  0  0  0  0
  -11.8399    6.8958   -0.0000 C   0  0  0  0  0  0  0  0  0  0  0  0
  -18.3453    3.1463   -0.0000 N   0  0  0  0  0  0  0  0  0  0  0  0
  -17.0560    0.9108   -0.0000 C   0  0  0  0  0  0  0  0  0  0  0  0
  -10.5624    7.6527   -0.0000 C   0  0  0  0  0  0  0  0  0  0  0  0
  -19.6582    2.4129   -0.0000 C   0  0  0  0  0  0  0  0  0  0  0  0
  -15.7668    0.1656   -0.0000 S   0  0  0  0  0  0  0  0  0  0  0  0
  -10.5743    9.1667   -0.0000 N   0  0  0  0  0  0  0  0  0  0  0  0
  -19.6700    0.9344   -0.0000 O   0  0  0  0  0  0  0  0  0  0  0  0
  -20.9593    3.1699   -0.0000 C   0  0  0  0  0  0  0  0  0  0  0  0
  -22.2722    2.4366   -0.0000 N   0  0  0  0  0  0  0  0  0  0  0  0
  -20.9711    4.6839   -0.0000 C   0  0  0  0  0  0  0  0  0  0  0  0
  -23.5851    3.1936   -0.0000 C   0  0  0  0  0  0  0  0  0  0  0  0
  -19.6937    5.4527   -0.0000 O   0  0  0  0  0  0  0  0  0  0  0  0
  -22.2840    5.4527   -0.0000 C   0  0  0  0  0  0  0  0  0  0  0  0
  -23.5969    4.7076   -0.0000 O   0  0  0  0  0  0  0  0  0  0  0  0
  -24.8980    2.4602   -0.0000 C   0  0  0  0  0  0  0  0  0  0  0  0
  -26.2109    3.2172   -0.0000 N   0  0  0  0  0  0  0  0  0  0  0  0
  -24.9099    0.9817   -0.0000 C   0  0  0  0  0  0  0  0  0  0  0  0
  -27.5239    2.4839   -0.0000 C   0  0  0  0  0  0  0  0  0  0  0  0
  -23.6206    0.2484   -0.0000 C   0  0  0  0  0  0  0  0  0  0  0  0
  -27.5357    1.0054   -0.0000 O   0  0  0  0  0  0  0  0  0  0  0  0
  -28.8368    3.2409   -0.0000 C   0  0  0  0  0  0  0  0  0  0  0  0
  -23.6324   -1.2301   -0.0000 C   0  0  0  0  0  0  0  0  0  0  0  0
  -30.1497    2.5075   -0.0000 N   0  0  0  0  0  0  0  0  0  0  0  0
  -28.8486    4.7549   -0.0000 C   0  0  0  0  0  0  0  0  0  0  0  0
  -22.3432   -1.9635   -0.0000 O   0  0  0  0  0  0  0  0  0  0  0  0
  -24.9335   -1.9635   -0.0000 O   0  0  0  0  0  0  0  0  0  0  0  0
  -31.4508    3.2645   -0.0000 C   0  0  0  0  0  0  0  0  0  0  0  0
  -27.5593    5.5119   -0.0000 C   0  0  0  0  0  0  0  0  0  0  0  0
  -31.4626    4.7785   -0.0000 O   0  0  0  0  0  0  0  0  0  0  0  0
  -32.7637    2.5312   -0.0000 C   0  0  0  0  0  0  0  0  0  0  0  0
  -27.5712    7.0259   -0.0000 C   0  0  0  0  0  0  0  0  0  0  0  0
  -34.0648    3.2882   -0.0000 N   0  0  0  0  0  0  0  0  0  0  0  0
  -32.7755    1.0527   -0.0000 C   0  0  0  0  0  0  0  0  0  0  0  0
  -26.2937    7.7829   -0.0000 O   0  0  0  0  0  0  0  0  0  0  0  0
  -28.8841    7.7829   -0.0000 O   0  0  0  0  0  0  0  0  0  0  0  0
  -35.3777    2.5549   -0.0000 C   0  0  0  0  0  0  0  0  0  0  0  0
  -31.4863    0.3194   -0.0000 C   0  0  0  0  0  0  0  0  0  0  0  0
  -35.3895    1.0764   -0.0000 O   0  0  0  0  0  0  0  0  0  0  0  0
  -36.6788    3.3119   -0.0000 C   0  0  0  0  0  0  0  0  0  0  0  0
  -31.4981   -1.1591   -0.0000 O   0  0  0  0  0  0  0  0  0  0  0  0
  -30.1970    1.0764   -0.0000 O   0  0  0  0  0  0  0  0  0  0  0  0
  -37.9917    2.5785   -0.0000 N   0  0  0  0  0  0  0  0  0  0  0  0
  -36.6906    4.8258   -0.0000 C   0  0  0  0  0  0  0  0  0  0  0  0
  -39.3046    3.3355   -0.0000 C   0  0  0  0  0  0  0  0  0  0  0  0
  -35.4132    5.5828   -0.0000 C   0  0  0  0  0  0  0  0  0  0  0  0
  -39.3164    4.8495   -0.0000 O   0  0  0  0  0  0  0  0  0  0  0  0
  -40.6057    2.6022   -0.0000 C   0  0  0  0  0  0  0  0  0  0  0  0
  -35.4250    7.0968   -0.0000 O   0  0  0  0  0  0  0  0  0  0  0  0
  -34.1239    4.8495   -0.0000 N   0  0  0  0  0  0  0  0  0  0  0  0
  -41.9186    3.3592   -0.0000 N   0  0  0  0  0  0  0  0  0  0  0  0
  -43.2315    2.6258   -0.0000 C   0  0  0  0  0  0  0  0  0  0  0  0
  -43.2433    1.1473   -0.0000 O   0  0  0  0  0  0  0  0  0  0  0  0
  -44.5444    3.3828   -0.0000 C   0  0  0  0  0  0  0  0  0  0  0  0
  -45.8573    2.6495   -0.0000 N   0  0  0  0  0  0  0  0  0  0  0  0
  -44.5562    4.8968   -0.0000 C   0  0  0  0  0  0  0  0  0  0  0  0
  -47.1584    3.4065   -0.0000 C   0  0  0  0  0  0  0  0  0  0  0  0
  -43.2670    5.6538   -0.0000 C   0  0  0  0  0  0  0  0  0  0  0  0
  -47.1702    4.9205   -0.0000 O   0  0  0  0  0  0  0  0  0  0  0  0
  -48.4713    2.6731   -0.0000 C   0  0  0  0  0  0  0  0  0  0  0  0
  -43.2788    7.1678   -0.0000 C   0  0  0  0  0  0  0  0  0  0  0  0
  -49.7724    3.4301   -0.0000 N   0  0  0  0  0  0  0  0  0  0  0  0
  -48.4832    1.1946   -0.0000 C   0  0  0  0  0  0  0  0  0  0  0  0
  -42.0014    7.9248   -0.0000 O   0  0  0  0  0  0  0  0  0  0  0  0
  -44.5917    7.9248   -0.0000 O   0  0  0  0  0  0  0  0  0  0  0  0
  -51.0853    2.6968   -0.0000 C   0  0  0  0  0  0  0  0  0  0  0  0
  -47.1939    0.4613   -0.0000 C   0  0  0  0  0  0  0  0  0  0  0  0
  -51.0972    1.2183   -0.0000 O   0  0  0  0  0  0  0  0  0  0  0  0
  -52.3864    3.4538   -0.0000 C   0  0  0  0  0  0  0  0  0  0  0  0
  -47.2057   -1.0172   -0.0000 C   0  0  0  0  0  0  0  0  0  0  0  0
  -45.9046    1.2183   -0.0000 C   0  0  0  0  0  0  0  0  0  0  0  0
  -53.6993    2.7205   -0.0000 N   0  0  0  0  0  0  0  0  0  0  0  0
  -52.3982    4.9678   -0.0000 C   0  0  0  0  0  0  0  0  0  0  0  0
  -55.0122    3.4774   -0.0000 C   0  0  0  0  0  0  0  0  0  0  0  0
  -51.1208    5.7248   -0.0000 C   0  0  0  0  0  0  0  0  0  0  0  0
  -55.0241    4.9914   -0.0000 O   0  0  0  0  0  0  0  0  0  0  0  0
  -56.3252    2.7441   -0.0000 C   0  0  0  0  0  0  0  0  0  0  0  0
  -51.1326    7.2388   -0.0000 C   0  0  0  0  0  0  0  0  0  0  0  0
  -49.8316    4.9914   -0.0000 C   0  0  0  0  0  0  0  0  0  0  0  0
  -57.6381    3.5011   -0.0000 N   0  0  0  0  0  0  0  0  0  0  0  0
  -56.3370    1.2656   -0.0000 C   0  0  0  0  0  0  0  0  0  0  0  0
  -58.9510    2.7678   -0.0000 C   0  0  0  0  0  0  0  0  0  0  0  0
  -55.0477    0.5323   -0.0000 S   0  0  0  0  0  0  0  0  0  0  0  0
  -58.9628    1.2893   -0.0000 O   0  0  0  0  0  0  0  0  0  0  0  0
  -60.2639    3.5248   -0.0000 C   0  0  0  0  0  0  0  0  0  0  0  0
  -61.5768    2.7914   -0.0000 N   0  0  0  0  0  0  0  0  0  0  0  0
  -60.2757    5.0387   -0.0000 C   0  0  0  0  0  0  0  0  0  0  0  0
  -62.8779    3.5484   -0.0000 C   0  0  0  0  0  0  0  0  0  0  0  0
  -58.9865    5.7957   -0.0000 C   0  0  0  0  0  0  0  0  0  0  0  0
  -62.8897    5.0624   -0.0000 O   0  0  0  0  0  0  0  0  0  0  0  0
  -64.1908    2.8151   -0.0000 C   0  0  0  0  0  0  0  0  0  0  0  0
  -58.9983    7.3097   -0.0000 O   0  0  0  0  0  0  0  0  0  0  0  0
  -57.7090    5.0624   -0.0000 N   0  0  0  0  0  0  0  0  0  0  0  0
  -65.4919    3.5721   -0.0000 N   0  0  0  0  0  0  0  0  0  0  0  0
  -64.2026    1.3366   -0.0000 C   0  0  0  0  0  0  0  0  0  0  0  0
  -66.8048    2.8387   -0.0000 C   0  0  0  0  0  0  0  0  0  0  0  0
  -62.9134    0.6032   -0.0000 C   0  0  0  0  0  0  0  0  0  0  0  0
  -66.8166    1.3602   -0.0000 O   0  0  0  0  0  0  0  0  0  0  0  0
  -68.1177    3.5957   -0.0000 C   0  0  0  0  0  0  0  0  0  0  0  0
  -62.9252   -0.8753   -0.0000 C   0  0  0  0  0  0  0  0  0  0  0  0
  -61.6241    1.3602   -0.0000 C   0  0  0  0  0  0  0  0  0  0  0  0
  -69.4306    2.8624   -0.0000 N   0  0  0  0  0  0  0  0  0  0  0  0
  -68.1295    5.1097   -0.0000 C   0  0  0  0  0  0  0  0  0  0  0  0
  -70.7435    3.6194   -0.0000 C   0  0  0  0  0  0  0  0  0  0  0  0
  -66.8403    5.8667   -0.0000 C   0  0  0  0  0  0  0  0  0  0  0  0
  -70.7554    5.1334   -0.0000 O   0  0  0  0  0  0  0  0  0  0  0  0
  -72.0565    2.8860   -0.0000 C   0  0  0  0  0  0  0  0  0  0  0  0
  -66.8521    7.3807   -0.0000 C   0  0  0  0  0  0  0  0  0  0  0  0
  -65.5510    5.1334   -0.0000 C   0  0  0  0  0  0  0  0  0  0  0  0
  -73.3694    3.6430   -0.0000 N   0  0  0  0  0  0  0  0  0  0  0  0
  -72.0683    1.3957   -0.0000 C   0  0  0  0  0  0  0  0  0  0  0  0
  -65.5629    8.1377   -0.0000 C   0  0  0  0  0  0  0  0  0  0  0  0
  -64.2736    5.8904   -0.0000 C   0  0  0  0  0  0  0  0  0  0  0  0
  -74.6704    2.9097   -0.0000 C   0  0  0  0  0  0  0  0  0  0  0  0
  -70.7790    0.6624   -0.0000 S   0  0  0  0  0  0  0  0  0  0  0  0
  -64.2854    7.4044   -0.0000 C   0  0  0  0  0  0  0  0  0  0  0  0
  -74.6823    1.4194   -0.0000 O   0  0  0  0  0  0  0  0  0  0  0  0
  -75.9834    3.6667   -0.0000 C   0  0  0  0  0  0  0  0  0  0  0  0
  -62.9962    8.1614   -0.0000 O   0  0  0  0  0  0  0  0  0  0  0  0
  -77.2963    2.9334   -0.0000 N   0  0  0  0  0  0  0  0  0  0  0  0
  -75.9952    5.1807   -0.0000 C   0  0  0  0  0  0  0  0  0  0  0  0
  1  2  1  0  0  0  0
  2  3  1  0  0  0  0
  3  4  1  6  0  0  0
  3  5  1  0  0  0  0
  4  6  1  0  0  0  0
  5  7  2  0  0  0  0
  5  8  1  0  0  0  0
  6  9  2  0  0  0  0
  6 10  1  0  0  0  0
 10 11  1  1  0  0  0
 10 12  1  0  0  0  0
 11 13  1  0  0  0  0
 12 14  1  0  0  0  0
 13 15  2  0  0  0  0
 13 16  1  0  0  0  0
 14 17  1  0  0  0  0
 14 18  2  0  0  0  0
 16 19  1  6  0  0  0
 16 20  1  0  0  0  0
 17 21  2  0  0  0  0
 17 22  1  0  0  0  0
 18 23  1  0  0  0  0
 19 24  1  0  0  0  0
 20 25  1  0  0  0  0
 21 26  1  0  0  0  0
 22 27  2  0  0  0  0
 24 28  2  0  0  0  0
 24 29  1  0  0  0  0
 25 30  1  0  0  0  0
 26 31  2  0  0  0  0
 29 32  1  1  0  0  0
 29 33  1  0  0  0  0
 30 34  2  0  0  0  0
 30 35  1  0  0  0  0
 32 36  1  0  0  0  0
 33 37  1  0  0  0  0
 36 38  2  0  0  0  0
 36 39  1  0  0  0  0
 37 40  1  0  0  0  0
 39 41  1  6  0  0  0
 39 42  1  0  0  0  0
 40 43  1  0  0  0  0
 41 44  1  0  0  0  0
 42 45  1  0  0  0  0
 43 46  1  0  0  0  0
 44 47  2  0  0  0  0
 44 48  1  0  0  0  0
 48 49  1  1  0  0  0
 48 50  1  0  0  0  0
 49 51  1  0  0  0  0
 50 52  1  1  0  0  0
 50 53  1  0  0  0  0
 51 54  2  0  0  0  0
 51 55  1  0  0  0  0
 55 56  1  6  0  0  0
 55 57  1  0  0  0  0
 56 58  1  0  0  0  0
 57 59  1  0  0  0  0
 58 60  2  0  0  0  0
 58 61  1  0  0  0  0
 59 62  1  0  0  0  0
 61 63  1  1  0  0  0
 61 64  1  0  0  0  0
 62 65  2  0  0  0  0
 62 66  1  0  0  0  0
 63 67  1  0  0  0  0
 64 68  1  0  0  0  0
 67 69  2  0  0  0  0
 67 70  1  0  0  0  0
 68 71  1  0  0  0  0
 70 72  1  6  0  0  0
 70 73  1  0  0  0  0
 71 74  2  0  0  0  0
 71 75  1  0  0  0  0
 72 76  1  0  0  0  0
 73 77  1  0  0  0  0
 76 78  2  0  0  0  0
 76 79  1  0  0  0  0
 77 80  2  0  0  0  0
 77 81  1  0  0  0  0
 79 82  1  1  0  0  0
 79 83  1  0  0  0  0
 82 84  1  0  0  0  0
 83 85  1  0  0  0  0
 84 86  2  0  0  0  0
 84 87  1  0  0  0  0
 85 88  2  0  0  0  0
 85 89  1  0  0  0  0
 87 90  1  0  0  0  0
 90 91  1  0  0  0  0
 91 92  2  0  0  0  0
 91 93  1  0  0  0  0
 93 94  1  1  0  0  0
 93 95  1  0  0  0  0
 94 96  1  0  0  0  0
 95 97  1  0  0  0  0
 96 98  2  0  0  0  0
 96 99  1  0  0  0  0
 97100  1  0  0  0  0
 99101  1  6  0  0  0
 99102  1  0  0  0  0
100103  2  0  0  0  0
100104  1  0  0  0  0
101105  1  0  0  0  0
102106  1  0  0  0  0
105107  2  0  0  0  0
105108  1  0  0  0  0
106109  1  0  0  0  0
106110  1  0  0  0  0
108111  1  1  0  0  0
108112  1  0  0  0  0
111113  1  0  0  0  0
112114  1  0  0  0  0
113115  2  0  0  0  0
113116  1  0  0  0  0
114117  1  0  0  0  0
114118  1  0  0  0  0
116119  1  6  0  0  0
116120  1  0  0  0  0
119121  1  0  0  0  0
120122  1  0  0  0  0
121123  2  0  0  0  0
121124  1  0  0  0  0
124125  1  1  0  0  0
124126  1  0  0  0  0
125127  1  0  0  0  0
126128  1  0  0  0  0
127129  2  0  0  0  0
127130  1  0  0  0  0
128131  2  0  0  0  0
128132  1  0  0  0  0
130133  1  6  0  0  0
130134  1  0  0  0  0
133135  1  0  0  0  0
134136  1  0  0  0  0
135137  2  0  0  0  0
135138  1  0  0  0  0
136139  1  0  0  0  0
136140  1  0  0  0  0
138141  1  1  0  0  0
138142  1  0  0  0  0
141143  1  0  0  0  0
142144  1  0  0  0  0
143145  2  0  0  0  0
143146  1  0  0  0  0
144147  2  0  0  0  0
144148  1  0  0  0  0
146149  1  6  0  0  0
146150  1  0  0  0  0
147151  1  0  0  0  0
148152  2  0  0  0  0
149153  1  0  0  0  0
150154  1  0  0  0  0
151155  2  0  0  0  0
153156  2  0  0  0  0
153157  1  0  0  0  0
155158  1  0  0  0  0
157159  1  1  0  0  0
157160  1  0  0  0  0
 21 23  1  0  0  0  0
 27 31  1  0  0  0  0
152155  1  0  0  0  0
M  END
>  <MolRegNo>
1625092

>  <m>
=

>  <Value>
1400

>  <Unit>
nM

>  <Type>
Ki

>  <pValue>
5.85

>  <Ligand Efficiency>
0

>  <Binding Efficiency>
2.51

>  <Surface Efficiency>
0

>  <Assay Index>
831551

>  <Assay Category>


>  <Assay Organism>
Homo sapiens

>  <Target ID>
56

>  <Target Name>
Androgen Receptor

>  <Target Organism>
Homo sapiens

>  <Target Description>
Target is a single protein chain

>  <Sequence Accession>
P10275

>  <Reference>
Medchemcomm 4 (1), 187-192 (2013)

>  <Pubmed ID>


>  <DOI>
10.1039/C2MD20182H

$$$$
1625091
Actelion Java MolfileCreator 1.0

165168  0  0  0  0  0  0  0  0999 V2000
    0.0000   -0.0000   -0.0000 S   0  0  0  0  0  0  0  0  0  0  0  0
   -1.3174    0.7714   -0.0000 C   0  0  0  0  0  0  0  0  0  0  0  0
   -1.3292    2.2787   -0.0000 C   0  0  0  0  0  0  0  0  0  0  0  0
   -2.6347    3.0382   -0.0000 N   0  0  0  0  0  0  0  0  0  0  0  0
   -0.0356    3.0382   -0.0000 C   0  0  0  0  0  0  0  0  0  0  0  0
   -3.9521    2.3024   -0.0000 C   0  0  0  0  0  0  0  0  0  0  0  0
   -0.0475    4.5573   -0.0000 O   0  0  0  0  0  0  0  0  0  0  0  0
    1.2461    2.3024   -0.0000 O   0  0  0  0  0  0  0  0  0  0  0  0
   -3.9639    0.8189   -0.0000 O   0  0  0  0  0  0  0  0  0  0  0  0
   -5.2575    3.0620   -0.0000 C   0  0  0  0  0  0  0  0  0  0  0  0
   -6.5749    2.3261   -0.0000 N   0  0  0  0  0  0  0  0  0  0  0  0
   -5.2694    4.5811   -0.0000 C   0  0  0  0  0  0  0  0  0  0  0  0
   -7.8804    3.0857   -0.0000 C   0  0  0  0  0  0  0  0  0  0  0  0
   -3.9877    5.3406   -0.0000 C   0  0  0  0  0  0  0  0  0  0  0  0
   -7.8922    4.5929   -0.0000 O   0  0  0  0  0  0  0  0  0  0  0  0
   -9.1977    2.3499   -0.0000 C   0  0  0  0  0  0  0  0  0  0  0  0
   -3.8452    6.8479   -0.0000 C   0  0  0  0  0  0  0  0  0  0  0  0
   -2.6228    4.7472   -0.0000 C   0  0  0  0  0  0  0  0  0  0  0  0
  -10.5032    3.1094   -0.0000 N   0  0  0  0  0  0  0  0  0  0  0  0
   -9.2096    0.8664   -0.0000 C   0  0  0  0  0  0  0  0  0  0  0  0
   -2.3855    7.1683   -0.0000 C   0  0  0  0  0  0  0  0  0  0  0  0
   -4.8659    7.9753   -0.0000 C   0  0  0  0  0  0  0  0  0  0  0  0
   -1.6378    5.8747   -0.0000 N   0  0  0  0  0  0  0  0  0  0  0  0
  -11.8206    2.3736   -0.0000 C   0  0  0  0  0  0  0  0  0  0  0  0
   -7.9160    0.1305   -0.0000 C   0  0  0  0  0  0  0  0  0  0  0  0
   -1.9345    8.6043   -0.0000 C   0  0  0  0  0  0  0  0  0  0  0  0
   -4.4149    9.4114   -0.0000 C   0  0  0  0  0  0  0  0  0  0  0  0
  -11.8324    0.8901   -0.0000 O   0  0  0  0  0  0  0  0  0  0  0  0
  -13.1260    3.1332   -0.0000 C   0  0  0  0  0  0  0  0  0  0  0  0
   -7.9278   -1.3530   -0.0000 C   0  0  0  0  0  0  0  0  0  0  0  0
   -2.9551    9.7318   -0.0000 C   0  0  0  0  0  0  0  0  0  0  0  0
  -14.4315    2.3973   -0.0000 N   0  0  0  0  0  0  0  0  0  0  0  0
  -13.1379    4.6404   -0.0000 C   0  0  0  0  0  0  0  0  0  0  0  0
   -6.6461   -2.0888   -0.0000 O   0  0  0  0  0  0  0  0  0  0  0  0
   -9.2333   -2.0888   -0.0000 O   0  0  0  0  0  0  0  0  0  0  0  0
  -15.7370    3.1569   -0.0000 C   0  0  0  0  0  0  0  0  0  0  0  0
  -11.8562    5.4000   -0.0000 C   0  0  0  0  0  0  0  0  0  0  0  0
  -15.7489    4.6641   -0.0000 O   0  0  0  0  0  0  0  0  0  0  0  0
  -17.0425    2.4211   -0.0000 C   0  0  0  0  0  0  0  0  0  0  0  0
  -11.8680    6.9072   -0.0000 C   0  0  0  0  0  0  0  0  0  0  0  0
  -18.3480    3.1806   -0.0000 N   0  0  0  0  0  0  0  0  0  0  0  0
  -17.0544    0.9376   -0.0000 C   0  0  0  0  0  0  0  0  0  0  0  0
  -10.5863    7.6668   -0.0000 C   0  0  0  0  0  0  0  0  0  0  0  0
  -19.6535    2.4448   -0.0000 C   0  0  0  0  0  0  0  0  0  0  0  0
  -15.7726    0.2018   -0.0000 S   0  0  0  0  0  0  0  0  0  0  0  0
  -10.5982    9.1740   -0.0000 N   0  0  0  0  0  0  0  0  0  0  0  0
  -19.6653    0.9613   -0.0000 O   0  0  0  0  0  0  0  0  0  0  0  0
  -20.9590    3.2044   -0.0000 C   0  0  0  0  0  0  0  0  0  0  0  0
  -22.2644    2.4686   -0.0000 N   0  0  0  0  0  0  0  0  0  0  0  0
  -20.9708    4.7116   -0.0000 C   0  0  0  0  0  0  0  0  0  0  0  0
  -23.5699    3.2281   -0.0000 C   0  0  0  0  0  0  0  0  0  0  0  0
  -19.6891    5.4712   -0.0000 O   0  0  0  0  0  0  0  0  0  0  0  0
  -22.2763    5.4712   -0.0000 C   0  0  0  0  0  0  0  0  0  0  0  0
  -23.5818    4.7353   -0.0000 O   0  0  0  0  0  0  0  0  0  0  0  0
  -24.8873    2.4923   -0.0000 C   0  0  0  0  0  0  0  0  0  0  0  0
  -26.1928    3.2518   -0.0000 N   0  0  0  0  0  0  0  0  0  0  0  0
  -24.8991    1.0088   -0.0000 C   0  0  0  0  0  0  0  0  0  0  0  0
  -27.5101    2.5160   -0.0000 C   0  0  0  0  0  0  0  0  0  0  0  0
  -23.6055    0.2730   -0.0000 C   0  0  0  0  0  0  0  0  0  0  0  0
  -27.5220    1.0325   -0.0000 O   0  0  0  0  0  0  0  0  0  0  0  0
  -28.8156    3.2756   -0.0000 C   0  0  0  0  0  0  0  0  0  0  0  0
  -23.6174   -1.2105   -0.0000 C   0  0  0  0  0  0  0  0  0  0  0  0
  -30.1329    2.5398   -0.0000 N   0  0  0  0  0  0  0  0  0  0  0  0
  -28.8275    4.7828   -0.0000 C   0  0  0  0  0  0  0  0  0  0  0  0
  -22.3238   -1.9464   -0.0000 O   0  0  0  0  0  0  0  0  0  0  0  0
  -24.9229   -1.9464   -0.0000 O   0  0  0  0  0  0  0  0  0  0  0  0
  -31.4384    3.2993   -0.0000 C   0  0  0  0  0  0  0  0  0  0  0  0
  -27.5457    5.5424   -0.0000 C   0  0  0  0  0  0  0  0  0  0  0  0
  -31.4503    4.8066   -0.0000 O   0  0  0  0  0  0  0  0  0  0  0  0
  -32.7558    2.5635   -0.0000 C   0  0  0  0  0  0  0  0  0  0  0  0
  -27.5576    7.0496   -0.0000 C   0  0  0  0  0  0  0  0  0  0  0  0
  -34.0613    3.3230   -0.0000 N   0  0  0  0  0  0  0  0  0  0  0  0
  -32.7676    1.0800   -0.0000 C   0  0  0  0  0  0  0  0  0  0  0  0
  -26.2758    7.8092   -0.0000 O   0  0  0  0  0  0  0  0  0  0  0  0
  -28.8631    7.8092   -0.0000 O   0  0  0  0  0  0  0  0  0  0  0  0
  -35.3786    2.5872   -0.0000 C   0  0  0  0  0  0  0  0  0  0  0  0
  -31.4740    0.3442   -0.0000 C   0  0  0  0  0  0  0  0  0  0  0  0
  -35.3905    1.1037   -0.0000 O   0  0  0  0  0  0  0  0  0  0  0  0
  -36.6841    3.3468   -0.0000 C   0  0  0  0  0  0  0  0  0  0  0  0
  -31.4859   -1.1393   -0.0000 O   0  0  0  0  0  0  0  0  0  0  0  0
  -30.1923    1.1037   -0.0000 O   0  0  0  0  0  0  0  0  0  0  0  0
  -38.0014    2.5991   -0.0000 N   0  0  0  0  0  0  0  0  0  0  0  0
  -36.6960    4.8540   -0.0000 C   0  0  0  0  0  0  0  0  0  0  0  0
  -39.3069    3.3587   -0.0000 C   0  0  0  0  0  0  0  0  0  0  0  0
  -35.4142    5.6136   -0.0000 C   0  0  0  0  0  0  0  0  0  0  0  0
  -39.3188    4.8659   -0.0000 O   0  0  0  0  0  0  0  0  0  0  0  0
  -40.6362    2.6110   -0.0000 C   0  0  0  0  0  0  0  0  0  0  0  0
  -35.4261    7.1208   -0.0000 O   0  0  0  0  0  0  0  0  0  0  0  0
  -34.1325    4.8778   -0.0000 N   0  0  0  0  0  0  0  0  0  0  0  0
  -41.9416    3.3705   -0.0000 N   0  0  0  0  0  0  0  0  0  0  0  0
  -43.2471    2.6347   -0.0000 C   0  0  0  0  0  0  0  0  0  0  0  0
  -43.2590    1.1512   -0.0000 O   0  0  0  0  0  0  0  0  0  0  0  0
  -44.5645    3.3943   -0.0000 C   0  0  0  0  0  0  0  0  0  0  0  0
  -45.8700    2.6584   -0.0000 N   0  0  0  0  0  0  0  0  0  0  0  0
  -44.5763    4.9015   -0.0000 C   0  0  0  0  0  0  0  0  0  0  0  0
  -47.1754    3.4180   -0.0000 C   0  0  0  0  0  0  0  0  0  0  0  0
  -43.2827    5.6611   -0.0000 C   0  0  0  0  0  0  0  0  0  0  0  0
  -47.1873    4.9252   -0.0000 O   0  0  0  0  0  0  0  0  0  0  0  0
  -48.4809    2.6822   -0.0000 C   0  0  0  0  0  0  0  0  0  0  0  0
  -43.2946    7.1802   -0.0000 C   0  0  0  0  0  0  0  0  0  0  0  0
  -49.7864    3.4417   -0.0000 N   0  0  0  0  0  0  0  0  0  0  0  0
  -48.4928    1.1987   -0.0000 C   0  0  0  0  0  0  0  0  0  0  0  0
  -42.0247    7.9397   -0.0000 O   0  0  0  0  0  0  0  0  0  0  0  0
  -44.6238    7.9397   -0.0000 O   0  0  0  0  0  0  0  0  0  0  0  0
  -51.0919    2.7059   -0.0000 C   0  0  0  0  0  0  0  0  0  0  0  0
  -47.2110    0.4629   -0.0000 C   0  0  0  0  0  0  0  0  0  0  0  0
  -51.1038    1.2224   -0.0000 O   0  0  0  0  0  0  0  0  0  0  0  0
  -52.3974    3.4655   -0.0000 C   0  0  0  0  0  0  0  0  0  0  0  0
  -45.9293    1.2224   -0.0000 C   0  0  0  0  0  0  0  0  0  0  0  0
  -47.2229   -1.0325   -0.0000 C   0  0  0  0  0  0  0  0  0  0  0  0
  -53.7029    2.7178   -0.0000 N   0  0  0  0  0  0  0  0  0  0  0  0
  -52.4092    4.9727   -0.0000 C   0  0  0  0  0  0  0  0  0  0  0  0
  -44.6475    0.4866   -0.0000 C   0  0  0  0  0  0  0  0  0  0  0  0
  -45.9412   -1.7683   -0.0000 C   0  0  0  0  0  0  0  0  0  0  0  0
  -55.0083    3.4773   -0.0000 C   0  0  0  0  0  0  0  0  0  0  0  0
  -51.1275    5.7323   -0.0000 C   0  0  0  0  0  0  0  0  0  0  0  0
  -44.6594   -0.9969   -0.0000 C   0  0  0  0  0  0  0  0  0  0  0  0
  -55.0202    4.9846   -0.0000 O   0  0  0  0  0  0  0  0  0  0  0  0
  -56.3138    2.7296   -0.0000 C   0  0  0  0  0  0  0  0  0  0  0  0
  -51.1394    7.2395   -0.0000 C   0  0  0  0  0  0  0  0  0  0  0  0
  -49.8457    4.9964   -0.0000 C   0  0  0  0  0  0  0  0  0  0  0  0
  -57.6193    3.4892   -0.0000 N   0  0  0  0  0  0  0  0  0  0  0  0
  -56.3257    1.2461   -0.0000 C   0  0  0  0  0  0  0  0  0  0  0  0
  -58.9367    2.7534   -0.0000 C   0  0  0  0  0  0  0  0  0  0  0  0
  -55.0439    0.5103   -0.0000 S   0  0  0  0  0  0  0  0  0  0  0  0
  -58.9485    1.2699   -0.0000 O   0  0  0  0  0  0  0  0  0  0  0  0
  -60.2421    3.5129   -0.0000 C   0  0  0  0  0  0  0  0  0  0  0  0
  -61.5595    2.7771   -0.0000 N   0  0  0  0  0  0  0  0  0  0  0  0
  -60.2540    5.0202   -0.0000 C   0  0  0  0  0  0  0  0  0  0  0  0
  -62.8650    3.5367   -0.0000 C   0  0  0  0  0  0  0  0  0  0  0  0
  -58.9723    5.7797   -0.0000 C   0  0  0  0  0  0  0  0  0  0  0  0
  -62.8769    5.0439   -0.0000 O   0  0  0  0  0  0  0  0  0  0  0  0
  -64.1823    2.8009   -0.0000 C   0  0  0  0  0  0  0  0  0  0  0  0
  -58.9841    7.2870   -0.0000 O   0  0  0  0  0  0  0  0  0  0  0  0
  -57.6905    5.0439   -0.0000 N   0  0  0  0  0  0  0  0  0  0  0  0
  -65.4878    3.5604   -0.0000 N   0  0  0  0  0  0  0  0  0  0  0  0
  -64.1942    1.3174   -0.0000 C   0  0  0  0  0  0  0  0  0  0  0  0
  -66.8052    2.8246   -0.0000 C   0  0  0  0  0  0  0  0  0  0  0  0
  -62.9006    0.5815   -0.0000 C   0  0  0  0  0  0  0  0  0  0  0  0
  -66.8170    1.3411   -0.0000 O   0  0  0  0  0  0  0  0  0  0  0  0
  -68.1107    3.5841   -0.0000 C   0  0  0  0  0  0  0  0  0  0  0  0
  -61.6188    1.3530   -0.0000 C   0  0  0  0  0  0  0  0  0  0  0  0
  -62.9125   -0.9020   -0.0000 C   0  0  0  0  0  0  0  0  0  0  0  0
  -69.4280    2.8483   -0.0000 N   0  0  0  0  0  0  0  0  0  0  0  0
  -68.1225    5.1033   -0.0000 C   0  0  0  0  0  0  0  0  0  0  0  0
  -60.3252    0.6171   -0.0000 C   0  0  0  0  0  0  0  0  0  0  0  0
  -61.6307   -1.6378   -0.0000 C   0  0  0  0  0  0  0  0  0  0  0  0
  -70.7335    3.6079   -0.0000 C   0  0  0  0  0  0  0  0  0  0  0  0
  -66.8408    5.8628   -0.0000 C   0  0  0  0  0  0  0  0  0  0  0  0
  -60.3371   -0.8664   -0.0000 C   0  0  0  0  0  0  0  0  0  0  0  0
  -70.7454    5.1270   -0.0000 O   0  0  0  0  0  0  0  0  0  0  0  0
  -72.0390    2.8721   -0.0000 C   0  0  0  0  0  0  0  0  0  0  0  0
  -66.8526    7.3700   -0.0000 C   0  0  0  0  0  0  0  0  0  0  0  0
  -73.3563    3.6316   -0.0000 N   0  0  0  0  0  0  0  0  0  0  0  0
  -72.0508    1.3886   -0.0000 C   0  0  0  0  0  0  0  0  0  0  0  0
  -65.5709    8.1296   -0.0000 N   0  0  0  0  0  0  0  0  0  0  0  0
  -74.6618    2.8958   -0.0000 C   0  0  0  0  0  0  0  0  0  0  0  0
  -70.7691    0.6527   -0.0000 S   0  0  0  0  0  0  0  0  0  0  0  0
  -65.5828    9.6368   -0.0000 C   0  0  0  0  0  0  0  0  0  0  0  0
  -74.6737    1.4123   -0.0000 O   0  0  0  0  0  0  0  0  0  0  0  0
  -75.9792    3.6554   -0.0000 C   0  0  0  0  0  0  0  0  0  0  0  0
  -64.3010   10.3964   -0.0000 N   0  0  0  0  0  0  0  0  0  0  0  0
  -66.9001   10.3964   -0.0000 N   0  0  0  0  0  0  0  0  0  0  0  0
  -77.2846    2.9195   -0.0000 N   0  0  0  0  0  0  0  0  0  0  0  0
  -75.9910    5.1626   -0.0000 C   0  0  0  0  0  0  0  0  0  0  0  0
  1  2  1  0  0  0  0
  2  3  1  0  0  0  0
  3  4  1  6  0  0  0
  3  5  1  0  0  0  0
  4  6  1  0  0  0  0
  5  7  2  0  0  0  0
  5  8  1  0  0  0  0
  6  9  2  0  0  0  0
  6 10  1  0  0  0  0
 10 11  1  1  0  0  0
 10 12  1  0  0  0  0
 11 13  1  0  0  0  0
 12 14  1  0  0  0  0
 13 15  2  0  0  0  0
 13 16  1  0  0  0  0
 14 17  1  0  0  0  0
 14 18  2  0  0  0  0
 16 19  1  6  0  0  0
 16 20  1  0  0  0  0
 17 21  2  0  0  0  0
 17 22  1  0  0  0  0
 18 23  1  0  0  0  0
 19 24  1  0  0  0  0
 20 25  1  0  0  0  0
 21 26  1  0  0  0  0
 22 27  2  0  0  0  0
 24 28  2  0  0  0  0
 24 29  1  0  0  0  0
 25 30  1  0  0  0  0
 26 31  2  0  0  0  0
 29 32  1  1  0  0  0
 29 33  1  0  0  0  0
 30 34  2  0  0  0  0
 30 35  1  0  0  0  0
 32 36  1  0  0  0  0
 33 37  1  0  0  0  0
 36 38  2  0  0  0  0
 36 39  1  0  0  0  0
 37 40  1  0  0  0  0
 39 41  1  6  0  0  0
 39 42  1  0  0  0  0
 40 43  1  0  0  0  0
 41 44  1  0  0  0  0
 42 45  1  0  0  0  0
 43 46  1  0  0  0  0
 44 47  2  0  0  0  0
 44 48  1  0  0  0  0
 48 49  1  1  0  0  0
 48 50  1  0  0  0  0
 49 51  1  0  0  0  0
 50 52  1  1  0  0  0
 50 53  1  0  0  0  0
 51 54  2  0  0  0  0
 51 55  1  0  0  0  0
 55 56  1  6  0  0  0
 55 57  1  0  0  0  0
 56 58  1  0  0  0  0
 57 59  1  0  0  0  0
 58 60  2  0  0  0  0
 58 61  1  0  0  0  0
 59 62  1  0  0  0  0
 61 63  1  1  0  0  0
 61 64  1  0  0  0  0
 62 65  2  0  0  0  0
 62 66  1  0  0  0  0
 63 67  1  0  0  0  0
 64 68  1  0  0  0  0
 67 69  2  0  0  0  0
 67 70  1  0  0  0  0
 68 71  1  0  0  0  0
 70 72  1  6  0  0  0
 70 73  1  0  0  0  0
 71 74  2  0  0  0  0
 71 75  1  0  0  0  0
 72 76  1  0  0  0  0
 73 77  1  0  0  0  0
 76 78  2  0  0  0  0
 76 79  1  0  0  0  0
 77 80  2  0  0  0  0
 77 81  1  0  0  0  0
 79 82  1  1  0  0  0
 79 83  1  0  0  0  0
 82 84  1  0  0  0  0
 83 85  1  0  0  0  0
 84 86  2  0  0  0  0
 84 87  1  0  0  0  0
 85 88  2  0  0  0  0
 85 89  1  0  0  0  0
 87 90  1  0  0  0  0
 90 91  1  0  0  0  0
 91 92  2  0  0  0  0
 91 93  1  0  0  0  0
 93 94  1  1  0  0  0
 93 95  1  0  0  0  0
 94 96  1  0  0  0  0
 95 97  1  0  0  0  0
 96 98  2  0  0  0  0
 96 99  1  0  0  0  0
 97100  1  0  0  0  0
 99101  1  6  0  0  0
 99102  1  0  0  0  0
100103  2  0  0  0  0
100104  1  0  0  0  0
101105  1  0  0  0  0
102106  1  0  0  0  0
105107  2  0  0  0  0
105108  1  0  0  0  0
106109  2  0  0  0  0
106110  1  0  0  0  0
108111  1  1  0  0  0
108112  1  0  0  0  0
109113  1  0  0  0  0
110114  2  0  0  0  0
111115  1  0  0  0  0
112116  1  0  0  0  0
113117  2  0  0  0  0
115118  2  0  0  0  0
115119  1  0  0  0  0
116120  1  0  0  0  0
116121  1  0  0  0  0
119122  1  6  0  0  0
119123  1  0  0  0  0
122124  1  0  0  0  0
123125  1  0  0  0  0
124126  2  0  0  0  0
124127  1  0  0  0  0
127128  1  1  0  0  0
127129  1  0  0  0  0
128130  1  0  0  0  0
129131  1  0  0  0  0
130132  2  0  0  0  0
130133  1  0  0  0  0
131134  2  0  0  0  0
131135  1  0  0  0  0
133136  1  6  0  0  0
133137  1  0  0  0  0
136138  1  0  0  0  0
137139  1  0  0  0  0
138140  2  0  0  0  0
138141  1  0  0  0  0
139142  2  0  0  0  0
139143  1  0  0  0  0
141144  1  1  0  0  0
141145  1  0  0  0  0
142146  1  0  0  0  0
143147  2  0  0  0  0
144148  1  0  0  0  0
145149  1  0  0  0  0
146150  2  0  0  0  0
148151  2  0  0  0  0
148152  1  0  0  0  0
149153  1  0  0  0  0
152154  1  6  0  0  0
152155  1  0  0  0  0
153156  1  0  0  0  0
154157  1  0  0  0  0
155158  1  0  0  0  0
156159  1  0  0  0  0
157160  2  0  0  0  0
157161  1  0  0  0  0
159162  2  0  0  0  0
159163  1  0  0  0  0
161164  1  1  0  0  0
161165  1  0  0  0  0
 21 23  1  0  0  0  0
 27 31  1  0  0  0  0
114117  1  0  0  0  0
147150  1  0  0  0  0
M  END
>  <MolRegNo>
1625091

>  <m>
=

>  <Value>
12000

>  <Unit>
nM

>  <Type>
Ki

>  <pValue>
4.92

>  <Ligand Efficiency>
0

>  <Binding Efficiency>
2.05

>  <Surface Efficiency>
0

>  <Assay Index>
831551

>  <Assay Category>


>  <Assay Organism>
Homo sapiens

>  <Target ID>
56

>  <Target Name>
Androgen Receptor

>  <Target Organism>
Homo sapiens

>  <Target Description>
Target is a single protein chain

>  <Sequence Accession>
P10275

>  <Reference>
Medchemcomm 4 (1), 187-192 (2013)

>  <Pubmed ID>


>  <DOI>
10.1039/C2MD20182H

$$$$
1625090
Actelion Java MolfileCreator 1.0

162165  0  0  0  0  0  0  0  0999 V2000
    0.0000   -0.0000   -0.0000 S   0  0  0  0  0  0  0  0  0  0  0  0
   -1.3173    0.7714   -0.0000 C   0  0  0  0  0  0  0  0  0  0  0  0
   -1.3292    2.2786   -0.0000 C   0  0  0  0  0  0  0  0  0  0  0  0
   -2.6347    3.0382   -0.0000 N   0  0  0  0  0  0  0  0  0  0  0  0
   -0.0356    3.0382   -0.0000 C   0  0  0  0  0  0  0  0  0  0  0  0
   -3.9520    2.3024   -0.0000 C   0  0  0  0  0  0  0  0  0  0  0  0
   -0.0475    4.5573   -0.0000 O   0  0  0  0  0  0  0  0  0  0  0  0
    1.2461    2.3024   -0.0000 O   0  0  0  0  0  0  0  0  0  0  0  0
   -3.9639    0.8189   -0.0000 O   0  0  0  0  0  0  0  0  0  0  0  0
   -5.2575    3.0619   -0.0000 C   0  0  0  0  0  0  0  0  0  0  0  0
   -6.5748    2.3261   -0.0000 N   0  0  0  0  0  0  0  0  0  0  0  0
   -5.2693    4.5691   -0.0000 C   0  0  0  0  0  0  0  0  0  0  0  0
   -7.8803    3.0857   -0.0000 C   0  0  0  0  0  0  0  0  0  0  0  0
   -3.9876    5.3287   -0.0000 C   0  0  0  0  0  0  0  0  0  0  0  0
   -7.8922    4.5929   -0.0000 O   0  0  0  0  0  0  0  0  0  0  0  0
   -9.1976    2.3498   -0.0000 C   0  0  0  0  0  0  0  0  0  0  0  0
   -3.8452    6.8359   -0.0000 C   0  0  0  0  0  0  0  0  0  0  0  0
   -2.6228    4.7353   -0.0000 C   0  0  0  0  0  0  0  0  0  0  0  0
  -10.5031    3.1094   -0.0000 N   0  0  0  0  0  0  0  0  0  0  0  0
   -9.2095    0.8664   -0.0000 C   0  0  0  0  0  0  0  0  0  0  0  0
   -2.3854    7.1563   -0.0000 C   0  0  0  0  0  0  0  0  0  0  0  0
   -4.8658    7.9634   -0.0000 C   0  0  0  0  0  0  0  0  0  0  0  0
   -1.6378    5.8627   -0.0000 N   0  0  0  0  0  0  0  0  0  0  0  0
  -11.8204    2.3736   -0.0000 C   0  0  0  0  0  0  0  0  0  0  0  0
   -7.9159    0.1305   -0.0000 C   0  0  0  0  0  0  0  0  0  0  0  0
   -1.9345    8.5924   -0.0000 C   0  0  0  0  0  0  0  0  0  0  0  0
   -4.4149    9.3994   -0.0000 C   0  0  0  0  0  0  0  0  0  0  0  0
  -11.8323    0.8901   -0.0000 O   0  0  0  0  0  0  0  0  0  0  0  0
  -13.1259    3.1331   -0.0000 C   0  0  0  0  0  0  0  0  0  0  0  0
   -7.9278   -1.3529   -0.0000 C   0  0  0  0  0  0  0  0  0  0  0  0
   -2.9551    9.7198   -0.0000 C   0  0  0  0  0  0  0  0  0  0  0  0
  -14.4432    2.3973   -0.0000 N   0  0  0  0  0  0  0  0  0  0  0  0
  -13.1378    4.6403   -0.0000 C   0  0  0  0  0  0  0  0  0  0  0  0
   -6.6460   -2.1006   -0.0000 O   0  0  0  0  0  0  0  0  0  0  0  0
   -9.2332   -2.0888   -0.0000 O   0  0  0  0  0  0  0  0  0  0  0  0
  -15.7487    3.1569   -0.0000 C   0  0  0  0  0  0  0  0  0  0  0  0
  -11.8560    5.3999   -0.0000 C   0  0  0  0  0  0  0  0  0  0  0  0
  -15.7606    4.6641   -0.0000 O   0  0  0  0  0  0  0  0  0  0  0  0
  -17.0542    2.4211   -0.0000 C   0  0  0  0  0  0  0  0  0  0  0  0
  -11.8679    6.9071   -0.0000 C   0  0  0  0  0  0  0  0  0  0  0  0
  -18.3596    3.1806   -0.0000 N   0  0  0  0  0  0  0  0  0  0  0  0
  -17.0660    0.9257   -0.0000 C   0  0  0  0  0  0  0  0  0  0  0  0
  -10.5862    7.6667   -0.0000 C   0  0  0  0  0  0  0  0  0  0  0  0
  -19.6651    2.4329   -0.0000 C   0  0  0  0  0  0  0  0  0  0  0  0
  -15.7843    0.1899   -0.0000 S   0  0  0  0  0  0  0  0  0  0  0  0
  -10.5980    9.1739   -0.0000 N   0  0  0  0  0  0  0  0  0  0  0  0
  -19.6770    0.9494   -0.0000 O   0  0  0  0  0  0  0  0  0  0  0  0
  -20.9706    3.1925   -0.0000 C   0  0  0  0  0  0  0  0  0  0  0  0
  -22.2760    2.4567   -0.0000 N   0  0  0  0  0  0  0  0  0  0  0  0
  -20.9824    4.6997   -0.0000 C   0  0  0  0  0  0  0  0  0  0  0  0
  -23.5815    3.2162   -0.0000 C   0  0  0  0  0  0  0  0  0  0  0  0
  -19.7007    5.4592   -0.0000 O   0  0  0  0  0  0  0  0  0  0  0  0
  -22.2879    5.4592   -0.0000 C   0  0  0  0  0  0  0  0  0  0  0  0
  -23.5934    4.7234   -0.0000 O   0  0  0  0  0  0  0  0  0  0  0  0
  -24.8989    2.4804   -0.0000 C   0  0  0  0  0  0  0  0  0  0  0  0
  -26.2043    3.2399   -0.0000 N   0  0  0  0  0  0  0  0  0  0  0  0
  -24.9107    0.9969   -0.0000 C   0  0  0  0  0  0  0  0  0  0  0  0
  -27.5217    2.5041   -0.0000 C   0  0  0  0  0  0  0  0  0  0  0  0
  -23.6171    0.2611   -0.0000 C   0  0  0  0  0  0  0  0  0  0  0  0
  -27.5335    1.0206   -0.0000 O   0  0  0  0  0  0  0  0  0  0  0  0
  -28.8271    3.2637   -0.0000 C   0  0  0  0  0  0  0  0  0  0  0  0
  -23.6290   -1.2224   -0.0000 C   0  0  0  0  0  0  0  0  0  0  0  0
  -30.1445    2.5279   -0.0000 N   0  0  0  0  0  0  0  0  0  0  0  0
  -28.8390    4.7709   -0.0000 C   0  0  0  0  0  0  0  0  0  0  0  0
  -22.3354   -1.9582   -0.0000 O   0  0  0  0  0  0  0  0  0  0  0  0
  -24.9345   -1.9582   -0.0000 O   0  0  0  0  0  0  0  0  0  0  0  0
  -31.4499    3.2874   -0.0000 C   0  0  0  0  0  0  0  0  0  0  0  0
  -27.5573    5.5304   -0.0000 C   0  0  0  0  0  0  0  0  0  0  0  0
  -31.4618    4.7946   -0.0000 O   0  0  0  0  0  0  0  0  0  0  0  0
  -32.7673    2.5516   -0.0000 C   0  0  0  0  0  0  0  0  0  0  0  0
  -27.5691    7.0377   -0.0000 C   0  0  0  0  0  0  0  0  0  0  0  0
  -34.0727    3.3111   -0.0000 N   0  0  0  0  0  0  0  0  0  0  0  0
  -32.7791    1.0681   -0.0000 C   0  0  0  0  0  0  0  0  0  0  0  0
  -26.2874    7.7972   -0.0000 O   0  0  0  0  0  0  0  0  0  0  0  0
  -28.8746    7.7972   -0.0000 O   0  0  0  0  0  0  0  0  0  0  0  0
  -35.3901    2.5635   -0.0000 C   0  0  0  0  0  0  0  0  0  0  0  0
  -31.4855    0.3323   -0.0000 C   0  0  0  0  0  0  0  0  0  0  0  0
  -35.4019    1.0800   -0.0000 O   0  0  0  0  0  0  0  0  0  0  0  0
  -36.6955    3.3230   -0.0000 C   0  0  0  0  0  0  0  0  0  0  0  0
  -31.4974   -1.1512   -0.0000 O   0  0  0  0  0  0  0  0  0  0  0  0
  -30.2038    1.0918   -0.0000 O   0  0  0  0  0  0  0  0  0  0  0  0
  -38.0129    2.5872   -0.0000 N   0  0  0  0  0  0  0  0  0  0  0  0
  -36.7074    4.8302   -0.0000 C   0  0  0  0  0  0  0  0  0  0  0  0
  -39.3184    3.3467   -0.0000 C   0  0  0  0  0  0  0  0  0  0  0  0
  -35.4257    5.5898   -0.0000 C   0  0  0  0  0  0  0  0  0  0  0  0
  -39.3302    4.8540   -0.0000 O   0  0  0  0  0  0  0  0  0  0  0  0
  -40.6357    2.6109   -0.0000 C   0  0  0  0  0  0  0  0  0  0  0  0
  -35.4375    7.1089   -0.0000 O   0  0  0  0  0  0  0  0  0  0  0  0
  -34.1439    4.8540   -0.0000 N   0  0  0  0  0  0  0  0  0  0  0  0
  -41.9412    3.3705   -0.0000 N   0  0  0  0  0  0  0  0  0  0  0  0
  -43.2466    2.6347   -0.0000 C   0  0  0  0  0  0  0  0  0  0  0  0
  -43.2585    1.1512   -0.0000 O   0  0  0  0  0  0  0  0  0  0  0  0
  -44.5521    3.3942   -0.0000 C   0  0  0  0  0  0  0  0  0  0  0  0
  -45.8576    2.6584   -0.0000 N   0  0  0  0  0  0  0  0  0  0  0  0
  -44.5640    4.9014   -0.0000 C   0  0  0  0  0  0  0  0  0  0  0  0
  -47.1630    3.4180   -0.0000 C   0  0  0  0  0  0  0  0  0  0  0  0
  -43.2822    5.6610   -0.0000 C   0  0  0  0  0  0  0  0  0  0  0  0
  -47.1749    4.9252   -0.0000 O   0  0  0  0  0  0  0  0  0  0  0  0
  -48.4685    2.6821   -0.0000 C   0  0  0  0  0  0  0  0  0  0  0  0
  -43.2941    7.1682   -0.0000 C   0  0  0  0  0  0  0  0  0  0  0  0
  -49.7740    3.4417   -0.0000 N   0  0  0  0  0  0  0  0  0  0  0  0
  -48.4804    1.1987   -0.0000 C   0  0  0  0  0  0  0  0  0  0  0  0
  -42.0124    7.9278   -0.0000 O   0  0  0  0  0  0  0  0  0  0  0  0
  -44.6114    7.9278   -0.0000 O   0  0  0  0  0  0  0  0  0  0  0  0
  -51.0794    2.6940   -0.0000 C   0  0  0  0  0  0  0  0  0  0  0  0
  -47.1986    0.4510   -0.0000 C   0  0  0  0  0  0  0  0  0  0  0  0
  -51.0913    1.2105   -0.0000 O   0  0  0  0  0  0  0  0  0  0  0  0
  -52.3849    3.4536   -0.0000 C   0  0  0  0  0  0  0  0  0  0  0  0
  -45.9050    1.2224   -0.0000 C   0  0  0  0  0  0  0  0  0  0  0  0
  -47.2105   -1.0325   -0.0000 C   0  0  0  0  0  0  0  0  0  0  0  0
  -53.6904    2.7059   -0.0000 N   0  0  0  0  0  0  0  0  0  0  0  0
  -52.3968    4.9608   -0.0000 C   0  0  0  0  0  0  0  0  0  0  0  0
  -44.6233    0.4866   -0.0000 C   0  0  0  0  0  0  0  0  0  0  0  0
  -45.9169   -1.7683   -0.0000 C   0  0  0  0  0  0  0  0  0  0  0  0
  -54.9958    3.4654   -0.0000 C   0  0  0  0  0  0  0  0  0  0  0  0
  -51.1150    5.7203   -0.0000 C   0  0  0  0  0  0  0  0  0  0  0  0
  -44.6352   -0.9969   -0.0000 C   0  0  0  0  0  0  0  0  0  0  0  0
  -55.0077    4.9845   -0.0000 O   0  0  0  0  0  0  0  0  0  0  0  0
  -56.3013    2.7296   -0.0000 C   0  0  0  0  0  0  0  0  0  0  0  0
  -51.1269    7.2276   -0.0000 C   0  0  0  0  0  0  0  0  0  0  0  0
  -49.8333    4.9845   -0.0000 C   0  0  0  0  0  0  0  0  0  0  0  0
  -57.6068    3.4892   -0.0000 N   0  0  0  0  0  0  0  0  0  0  0  0
  -56.3132    1.2461   -0.0000 C   0  0  0  0  0  0  0  0  0  0  0  0
  -58.9241    2.7534   -0.0000 C   0  0  0  0  0  0  0  0  0  0  0  0
  -55.0314    0.5103   -0.0000 S   0  0  0  0  0  0  0  0  0  0  0  0
  -58.9360    1.2699   -0.0000 O   0  0  0  0  0  0  0  0  0  0  0  0
  -60.2296    3.5129   -0.0000 C   0  0  0  0  0  0  0  0  0  0  0  0
  -61.5469    2.7771   -0.0000 N   0  0  0  0  0  0  0  0  0  0  0  0
  -60.2415    5.0320   -0.0000 C   0  0  0  0  0  0  0  0  0  0  0  0
  -62.8524    3.5366   -0.0000 C   0  0  0  0  0  0  0  0  0  0  0  0
  -58.9597    5.7915   -0.0000 C   0  0  0  0  0  0  0  0  0  0  0  0
  -62.8643    5.0439   -0.0000 O   0  0  0  0  0  0  0  0  0  0  0  0
  -64.1697    2.8008   -0.0000 C   0  0  0  0  0  0  0  0  0  0  0  0
  -58.9716    7.2988   -0.0000 O   0  0  0  0  0  0  0  0  0  0  0  0
  -57.6780    5.0557   -0.0000 N   0  0  0  0  0  0  0  0  0  0  0  0
  -65.4752    3.5604   -0.0000 N   0  0  0  0  0  0  0  0  0  0  0  0
  -64.1816    1.3173   -0.0000 C   0  0  0  0  0  0  0  0  0  0  0  0
  -66.7925    2.8246   -0.0000 C   0  0  0  0  0  0  0  0  0  0  0  0
  -62.8880    0.5697   -0.0000 C   0  0  0  0  0  0  0  0  0  0  0  0
  -66.8044    1.3411   -0.0000 O   0  0  0  0  0  0  0  0  0  0  0  0
  -68.0980    3.5841   -0.0000 C   0  0  0  0  0  0  0  0  0  0  0  0
  -61.6063    1.3411   -0.0000 C   0  0  0  0  0  0  0  0  0  0  0  0
  -62.8999   -0.9138   -0.0000 C   0  0  0  0  0  0  0  0  0  0  0  0
  -69.4153    2.8483   -0.0000 N   0  0  0  0  0  0  0  0  0  0  0  0
  -68.1099    5.0913   -0.0000 C   0  0  0  0  0  0  0  0  0  0  0  0
  -60.3127    0.6053   -0.0000 C   0  0  0  0  0  0  0  0  0  0  0  0
  -61.6181   -1.6496   -0.0000 C   0  0  0  0  0  0  0  0  0  0  0  0
  -70.7208    3.6078   -0.0000 C   0  0  0  0  0  0  0  0  0  0  0  0
  -66.8281    5.8509   -0.0000 C   0  0  0  0  0  0  0  0  0  0  0  0
  -60.3245   -0.8782   -0.0000 C   0  0  0  0  0  0  0  0  0  0  0  0
  -70.7327    5.1151   -0.0000 O   0  0  0  0  0  0  0  0  0  0  0  0
  -72.0381    2.8720   -0.0000 C   0  0  0  0  0  0  0  0  0  0  0  0
  -66.8400    7.3581   -0.0000 C   0  0  0  0  0  0  0  0  0  0  0  0
  -65.5464    5.1151   -0.0000 C   0  0  0  0  0  0  0  0  0  0  0  0
  -73.3555    3.6316   -0.0000 N   0  0  0  0  0  0  0  0  0  0  0  0
  -72.0500    1.3885   -0.0000 C   0  0  0  0  0  0  0  0  0  0  0  0
  -74.6610    2.8958   -0.0000 C   0  0  0  0  0  0  0  0  0  0  0  0
  -70.7564    0.6527   -0.0000 S   0  0  0  0  0  0  0  0  0  0  0  0
  -74.6728    1.4123   -0.0000 O   0  0  0  0  0  0  0  0  0  0  0  0
  -75.9783    3.6553   -0.0000 C   0  0  0  0  0  0  0  0  0  0  0  0
  -77.2838    2.9195   -0.0000 N   0  0  0  0  0  0  0  0  0  0  0  0
  -75.9902    5.1625   -0.0000 C   0  0  0  0  0  0  0  0  0  0  0  0
  1  2  1  0  0  0  0
  2  3  1  0  0  0  0
  3  4  1  6  0  0  0
  3  5  1  0  0  0  0
  4  6  1  0  0  0  0
  5  7  2  0  0  0  0
  5  8  1  0  0  0  0
  6  9  2  0  0  0  0
  6 10  1  0  0  0  0
 10 11  1  1  0  0  0
 10 12  1  0  0  0  0
 11 13  1  0  0  0  0
 12 14  1  0  0  0  0
 13 15  2  0  0  0  0
 13 16  1  0  0  0  0
 14 17  1  0  0  0  0
 14 18  2  0  0  0  0
 16 19  1  6  0  0  0
 16 20  1  0  0  0  0
 17 21  2  0  0  0  0
 17 22  1  0  0  0  0
 18 23  1  0  0  0  0
 19 24  1  0  0  0  0
 20 25  1  0  0  0  0
 21 26  1  0  0  0  0
 22 27  2  0  0  0  0
 24 28  2  0  0  0  0
 24 29  1  0  0  0  0
 25 30  1  0  0  0  0
 26 31  2  0  0  0  0
 29 32  1  1  0  0  0
 29 33  1  0  0  0  0
 30 34  2  0  0  0  0
 30 35  1  0  0  0  0
 32 36  1  0  0  0  0
 33 37  1  0  0  0  0
 36 38  2  0  0  0  0
 36 39  1  0  0  0  0
 37 40  1  0  0  0  0
 39 41  1  6  0  0  0
 39 42  1  0  0  0  0
 40 43  1  0  0  0  0
 41 44  1  0  0  0  0
 42 45  1  0  0  0  0
 43 46  1  0  0  0  0
 44 47  2  0  0  0  0
 44 48  1  0  0  0  0
 48 49  1  1  0  0  0
 48 50  1  0  0  0  0
 49 51  1  0  0  0  0
 50 52  1  1  0  0  0
 50 53  1  0  0  0  0
 51 54  2  0  0  0  0
 51 55  1  0  0  0  0
 55 56  1  6  0  0  0
 55 57  1  0  0  0  0
 56 58  1  0  0  0  0
 57 59  1  0  0  0  0
 58 60  2  0  0  0  0
 58 61  1  0  0  0  0
 59 62  1  0  0  0  0
 61 63  1  1  0  0  0
 61 64  1  0  0  0  0
 62 65  2  0  0  0  0
 62 66  1  0  0  0  0
 63 67  1  0  0  0  0
 64 68  1  0  0  0  0
 67 69  2  0  0  0  0
 67 70  1  0  0  0  0
 68 71  1  0  0  0  0
 70 72  1  6  0  0  0
 70 73  1  0  0  0  0
 71 74  2  0  0  0  0
 71 75  1  0  0  0  0
 72 76  1  0  0  0  0
 73 77  1  0  0  0  0
 76 78  2  0  0  0  0
 76 79  1  0  0  0  0
 77 80  2  0  0  0  0
 77 81  1  0  0  0  0
 79 82  1  1  0  0  0
 79 83  1  0  0  0  0
 82 84  1  0  0  0  0
 83 85  1  0  0  0  0
 84 86  2  0  0  0  0
 84 87  1  0  0  0  0
 85 88  2  0  0  0  0
 85 89  1  0  0  0  0
 87 90  1  0  0  0  0
 90 91  1  0  0  0  0
 91 92  2  0  0  0  0
 91 93  1  0  0  0  0
 93 94  1  1  0  0  0
 93 95  1  0  0  0  0
 94 96  1  0  0  0  0
 95 97  1  0  0  0  0
 96 98  2  0  0  0  0
 96 99  1  0  0  0  0
 97100  1  0  0  0  0
 99101  1  6  0  0  0
 99102  1  0  0  0  0
100103  2  0  0  0  0
100104  1  0  0  0  0
101105  1  0  0  0  0
102106  1  0  0  0  0
105107  2  0  0  0  0
105108  1  0  0  0  0
106109  2  0  0  0  0
106110  1  0  0  0  0
108111  1  1  0  0  0
108112  1  0  0  0  0
109113  1  0  0  0  0
110114  2  0  0  0  0
111115  1  0  0  0  0
112116  1  0  0  0  0
113117  2  0  0  0  0
115118  2  0  0  0  0
115119  1  0  0  0  0
116120  1  0  0  0  0
116121  1  0  0  0  0
119122  1  6  0  0  0
119123  1  0  0  0  0
122124  1  0  0  0  0
123125  1  0  0  0  0
124126  2  0  0  0  0
124127  1  0  0  0  0
127128  1  1  0  0  0
127129  1  0  0  0  0
128130  1  0  0  0  0
129131  1  0  0  0  0
130132  2  0  0  0  0
130133  1  0  0  0  0
131134  2  0  0  0  0
131135  1  0  0  0  0
133136  1  6  0  0  0
133137  1  0  0  0  0
136138  1  0  0  0  0
137139  1  0  0  0  0
138140  2  0  0  0  0
138141  1  0  0  0  0
139142  2  0  0  0  0
139143  1  0  0  0  0
141144  1  1  0  0  0
141145  1  0  0  0  0
142146  1  0  0  0  0
143147  2  0  0  0  0
144148  1  0  0  0  0
145149  1  0  0  0  0
146150  2  0  0  0  0
148151  2  0  0  0  0
148152  1  0  0  0  0
149153  1  0  0  0  0
149154  1  0  0  0  0
152155  1  6  0  0  0
152156  1  0  0  0  0
155157  1  0  0  0  0
156158  1  0  0  0  0
157159  2  0  0  0  0
157160  1  0  0  0  0
160161  1  1  0  0  0
160162  1  0  0  0  0
 21 23  1  0  0  0  0
 27 31  1  0  0  0  0
114117  1  0  0  0  0
147150  1  0  0  0  0
M  END
>  <MolRegNo>
1625090

>  <m>
=

>  <Value>
3000

>  <Unit>
nM

>  <Type>
Ki

>  <pValue>
5.52

>  <Ligand Efficiency>
0

>  <Binding Efficiency>
2.35

>  <Surface Efficiency>
0

>  <Assay Index>
831551

>  <Assay Category>


>  <Assay Organism>
Homo sapiens

>  <Target ID>
56

>  <Target Name>
Androgen Receptor

>  <Target Organism>
Homo sapiens

>  <Target Description>
Target is a single protein chain

>  <Sequence Accession>
P10275

>  <Reference>
Medchemcomm 4 (1), 187-192 (2013)

>  <Pubmed ID>


>  <DOI>
10.1039/C2MD20182H

$$$$
1625089
Actelion Java MolfileCreator 1.0

166170  0  0  0  0  0  0  0  0999 V2000
    0.0000   -0.0000   -0.0000 S   0  0  0  0  0  0  0  0  0  0  0  0
   -1.3139    0.7575   -0.0000 C   0  0  0  0  0  0  0  0  0  0  0  0
   -1.3257    2.2608   -0.0000 C   0  0  0  0  0  0  0  0  0  0  0  0
   -2.6277    3.0184   -0.0000 N   0  0  0  0  0  0  0  0  0  0  0  0
   -0.0355    3.0184   -0.0000 C   0  0  0  0  0  0  0  0  0  0  0  0
   -3.9416    2.2845   -0.0000 C   0  0  0  0  0  0  0  0  0  0  0  0
   -0.0473    4.5334   -0.0000 O   0  0  0  0  0  0  0  0  0  0  0  0
    1.2547    2.2845   -0.0000 O   0  0  0  0  0  0  0  0  0  0  0  0
   -3.9534    0.8049   -0.0000 O   0  0  0  0  0  0  0  0  0  0  0  0
   -5.2436    3.0420   -0.0000 C   0  0  0  0  0  0  0  0  0  0  0  0
   -6.5575    2.3082   -0.0000 N   0  0  0  0  0  0  0  0  0  0  0  0
   -5.2555    4.5571   -0.0000 C   0  0  0  0  0  0  0  0  0  0  0  0
   -7.8596    3.0657   -0.0000 C   0  0  0  0  0  0  0  0  0  0  0  0
   -3.9771    5.3147   -0.0000 C   0  0  0  0  0  0  0  0  0  0  0  0
   -7.8714    4.5808   -0.0000 O   0  0  0  0  0  0  0  0  0  0  0  0
   -9.1734    2.3318   -0.0000 C   0  0  0  0  0  0  0  0  0  0  0  0
   -3.8351    6.8179   -0.0000 C   0  0  0  0  0  0  0  0  0  0  0  0
   -2.6159    4.7110   -0.0000 C   0  0  0  0  0  0  0  0  0  0  0  0
  -10.4873    3.0894   -0.0000 N   0  0  0  0  0  0  0  0  0  0  0  0
   -9.1853    0.8522   -0.0000 C   0  0  0  0  0  0  0  0  0  0  0  0
   -2.3792    7.1375   -0.0000 C   0  0  0  0  0  0  0  0  0  0  0  0
   -4.8530    7.9424   -0.0000 C   0  0  0  0  0  0  0  0  0  0  0  0
   -1.6216    5.8473   -0.0000 N   0  0  0  0  0  0  0  0  0  0  0  0
  -11.8012    2.3555   -0.0000 C   0  0  0  0  0  0  0  0  0  0  0  0
   -7.8951    0.1184   -0.0000 C   0  0  0  0  0  0  0  0  0  0  0  0
   -1.9294    8.5816   -0.0000 C   0  0  0  0  0  0  0  0  0  0  0  0
   -4.4032    9.3865   -0.0000 C   0  0  0  0  0  0  0  0  0  0  0  0
  -11.8130    0.8759   -0.0000 O   0  0  0  0  0  0  0  0  0  0  0  0
  -13.1150    3.1130   -0.0000 C   0  0  0  0  0  0  0  0  0  0  0  0
   -7.9069   -1.3612   -0.0000 C   0  0  0  0  0  0  0  0  0  0  0  0
   -2.9473    9.7061   -0.0000 C   0  0  0  0  0  0  0  0  0  0  0  0
  -14.4289    2.3792   -0.0000 N   0  0  0  0  0  0  0  0  0  0  0  0
  -13.1269    4.6281   -0.0000 C   0  0  0  0  0  0  0  0  0  0  0  0
   -6.6167   -2.0951   -0.0000 O   0  0  0  0  0  0  0  0  0  0  0  0
   -9.2208   -2.0951   -0.0000 O   0  0  0  0  0  0  0  0  0  0  0  0
  -15.7428    3.1367   -0.0000 C   0  0  0  0  0  0  0  0  0  0  0  0
  -11.8367    5.3857   -0.0000 C   0  0  0  0  0  0  0  0  0  0  0  0
  -15.7546    4.6518   -0.0000 O   0  0  0  0  0  0  0  0  0  0  0  0
  -17.0567    2.3910   -0.0000 C   0  0  0  0  0  0  0  0  0  0  0  0
  -11.8485    6.9008   -0.0000 C   0  0  0  0  0  0  0  0  0  0  0  0
  -18.3587    3.1486   -0.0000 N   0  0  0  0  0  0  0  0  0  0  0  0
  -17.0685    0.9114   -0.0000 C   0  0  0  0  0  0  0  0  0  0  0  0
  -10.5702    7.6583   -0.0000 C   0  0  0  0  0  0  0  0  0  0  0  0
  -19.6726    2.4028   -0.0000 C   0  0  0  0  0  0  0  0  0  0  0  0
  -15.7783    0.1776   -0.0000 S   0  0  0  0  0  0  0  0  0  0  0  0
  -10.5820    9.1734   -0.0000 N   0  0  0  0  0  0  0  0  0  0  0  0
  -19.6844    0.9233   -0.0000 O   0  0  0  0  0  0  0  0  0  0  0  0
  -20.9746    3.1604   -0.0000 C   0  0  0  0  0  0  0  0  0  0  0  0
  -22.2885    2.4265   -0.0000 N   0  0  0  0  0  0  0  0  0  0  0  0
  -20.9864    4.6755   -0.0000 C   0  0  0  0  0  0  0  0  0  0  0  0
  -23.6023    3.1841   -0.0000 C   0  0  0  0  0  0  0  0  0  0  0  0
  -19.7081    5.4449   -0.0000 O   0  0  0  0  0  0  0  0  0  0  0  0
  -22.3003    5.4449   -0.0000 C   0  0  0  0  0  0  0  0  0  0  0  0
  -23.6142    4.6992   -0.0000 O   0  0  0  0  0  0  0  0  0  0  0  0
  -24.9162    2.4502   -0.0000 C   0  0  0  0  0  0  0  0  0  0  0  0
  -26.2301    3.2077   -0.0000 N   0  0  0  0  0  0  0  0  0  0  0  0
  -24.9280    0.9706   -0.0000 C   0  0  0  0  0  0  0  0  0  0  0  0
  -27.5439    2.4739   -0.0000 C   0  0  0  0  0  0  0  0  0  0  0  0
  -23.6378    0.2367   -0.0000 C   0  0  0  0  0  0  0  0  0  0  0  0
  -27.5558    0.9943   -0.0000 O   0  0  0  0  0  0  0  0  0  0  0  0
  -28.8578    3.2314   -0.0000 C   0  0  0  0  0  0  0  0  0  0  0  0
  -23.6497   -1.2429   -0.0000 C   0  0  0  0  0  0  0  0  0  0  0  0
  -30.1717    2.4975   -0.0000 N   0  0  0  0  0  0  0  0  0  0  0  0
  -28.8697    4.7465   -0.0000 C   0  0  0  0  0  0  0  0  0  0  0  0
  -22.3595   -1.9767   -0.0000 O   0  0  0  0  0  0  0  0  0  0  0  0
  -24.9517   -1.9767   -0.0000 O   0  0  0  0  0  0  0  0  0  0  0  0
  -31.4856    3.2551   -0.0000 C   0  0  0  0  0  0  0  0  0  0  0  0
  -27.5795    5.5041   -0.0000 C   0  0  0  0  0  0  0  0  0  0  0  0
  -31.4974    4.7702   -0.0000 O   0  0  0  0  0  0  0  0  0  0  0  0
  -32.7994    2.5212   -0.0000 C   0  0  0  0  0  0  0  0  0  0  0  0
  -27.5913    7.0191   -0.0000 C   0  0  0  0  0  0  0  0  0  0  0  0
  -34.1015    3.2788   -0.0000 N   0  0  0  0  0  0  0  0  0  0  0  0
  -32.8113    1.0416   -0.0000 C   0  0  0  0  0  0  0  0  0  0  0  0
  -26.3129    7.7767   -0.0000 O   0  0  0  0  0  0  0  0  0  0  0  0
  -28.9052    7.7767   -0.0000 O   0  0  0  0  0  0  0  0  0  0  0  0
  -35.4153    2.5449   -0.0000 C   0  0  0  0  0  0  0  0  0  0  0  0
  -31.5211    0.3078   -0.0000 C   0  0  0  0  0  0  0  0  0  0  0  0
  -35.4272    1.0653   -0.0000 O   0  0  0  0  0  0  0  0  0  0  0  0
  -36.7174    3.3024   -0.0000 C   0  0  0  0  0  0  0  0  0  0  0  0
  -31.5329   -1.1718   -0.0000 O   0  0  0  0  0  0  0  0  0  0  0  0
  -30.2309    1.0653   -0.0000 O   0  0  0  0  0  0  0  0  0  0  0  0
  -38.0431    2.5686   -0.0000 N   0  0  0  0  0  0  0  0  0  0  0  0
  -36.7292    4.8175   -0.0000 C   0  0  0  0  0  0  0  0  0  0  0  0
  -39.3451    3.3261   -0.0000 C   0  0  0  0  0  0  0  0  0  0  0  0
  -35.4508    5.5751   -0.0000 C   0  0  0  0  0  0  0  0  0  0  0  0
  -39.3569    4.8412   -0.0000 O   0  0  0  0  0  0  0  0  0  0  0  0
  -40.6708    2.5922   -0.0000 C   0  0  0  0  0  0  0  0  0  0  0  0
  -35.4627    7.0902   -0.0000 O   0  0  0  0  0  0  0  0  0  0  0  0
  -34.1606    4.8412   -0.0000 N   0  0  0  0  0  0  0  0  0  0  0  0
  -41.9729    3.3498   -0.0000 N   0  0  0  0  0  0  0  0  0  0  0  0
  -43.2749    2.6159   -0.0000 C   0  0  0  0  0  0  0  0  0  0  0  0
  -43.2867    1.1363   -0.0000 O   0  0  0  0  0  0  0  0  0  0  0  0
  -44.5888    3.3735   -0.0000 C   0  0  0  0  0  0  0  0  0  0  0  0
  -45.9026    2.6396   -0.0000 N   0  0  0  0  0  0  0  0  0  0  0  0
  -44.6006    4.8885   -0.0000 C   0  0  0  0  0  0  0  0  0  0  0  0
  -47.2165    3.3971   -0.0000 C   0  0  0  0  0  0  0  0  0  0  0  0
  -43.3104    5.6461   -0.0000 C   0  0  0  0  0  0  0  0  0  0  0  0
  -47.2283    4.9122   -0.0000 O   0  0  0  0  0  0  0  0  0  0  0  0
  -48.5304    2.6633   -0.0000 C   0  0  0  0  0  0  0  0  0  0  0  0
  -43.3222    7.1612   -0.0000 C   0  0  0  0  0  0  0  0  0  0  0  0
  -49.8206    3.4208   -0.0000 N   0  0  0  0  0  0  0  0  0  0  0  0
  -48.5422    1.1837   -0.0000 C   0  0  0  0  0  0  0  0  0  0  0  0
  -42.0557    7.9187   -0.0000 O   0  0  0  0  0  0  0  0  0  0  0  0
  -44.6479    7.9187   -0.0000 O   0  0  0  0  0  0  0  0  0  0  0  0
  -51.1463    2.6869   -0.0000 C   0  0  0  0  0  0  0  0  0  0  0  0
  -47.2520    0.4498   -0.0000 C   0  0  0  0  0  0  0  0  0  0  0  0
  -51.1581    1.2073   -0.0000 O   0  0  0  0  0  0  0  0  0  0  0  0
  -52.4483    3.4445   -0.0000 C   0  0  0  0  0  0  0  0  0  0  0  0
  -45.9736    1.2192   -0.0000 C   0  0  0  0  0  0  0  0  0  0  0  0
  -47.2520   -1.0298   -0.0000 C   0  0  0  0  0  0  0  0  0  0  0  0
  -53.7503    2.7106   -0.0000 N   0  0  0  0  0  0  0  0  0  0  0  0
  -52.4601    4.9596   -0.0000 C   0  0  0  0  0  0  0  0  0  0  0  0
  -44.6835    0.4853   -0.0000 C   0  0  0  0  0  0  0  0  0  0  0  0
  -45.9736   -1.7637   -0.0000 C   0  0  0  0  0  0  0  0  0  0  0  0
  -55.0642    3.4681   -0.0000 C   0  0  0  0  0  0  0  0  0  0  0  0
  -51.1818    5.7171   -0.0000 C   0  0  0  0  0  0  0  0  0  0  0  0
  -44.6835   -1.0061   -0.0000 C   0  0  0  0  0  0  0  0  0  0  0  0
  -55.0761    4.9832   -0.0000 O   0  0  0  0  0  0  0  0  0  0  0  0
  -56.3663    2.7343   -0.0000 C   0  0  0  0  0  0  0  0  0  0  0  0
  -51.1936    7.2322   -0.0000 C   0  0  0  0  0  0  0  0  0  0  0  0
  -49.8916    4.9832   -0.0000 C   0  0  0  0  0  0  0  0  0  0  0  0
  -57.6801    3.4918   -0.0000 N   0  0  0  0  0  0  0  0  0  0  0  0
  -56.3781    1.2547   -0.0000 C   0  0  0  0  0  0  0  0  0  0  0  0
  -58.9940    2.7579   -0.0000 C   0  0  0  0  0  0  0  0  0  0  0  0
  -55.0997    0.5208   -0.0000 S   0  0  0  0  0  0  0  0  0  0  0  0
  -59.0058    1.2784   -0.0000 O   0  0  0  0  0  0  0  0  0  0  0  0
  -60.2842    3.5155   -0.0000 C   0  0  0  0  0  0  0  0  0  0  0  0
  -61.6099    2.7816   -0.0000 N   0  0  0  0  0  0  0  0  0  0  0  0
  -60.2960    5.0306   -0.0000 C   0  0  0  0  0  0  0  0  0  0  0  0
  -62.9001    3.5392   -0.0000 C   0  0  0  0  0  0  0  0  0  0  0  0
  -59.0295    5.7881   -0.0000 C   0  0  0  0  0  0  0  0  0  0  0  0
  -62.9119    5.0543   -0.0000 O   0  0  0  0  0  0  0  0  0  0  0  0
  -64.2140    2.8053   -0.0000 C   0  0  0  0  0  0  0  0  0  0  0  0
  -59.0413    7.3032   -0.0000 O   0  0  0  0  0  0  0  0  0  0  0  0
  -57.7393    5.0543   -0.0000 N   0  0  0  0  0  0  0  0  0  0  0  0
  -65.5278    3.5628   -0.0000 N   0  0  0  0  0  0  0  0  0  0  0  0
  -64.2258    1.3257   -0.0000 C   0  0  0  0  0  0  0  0  0  0  0  0
  -66.8417    2.8290   -0.0000 C   0  0  0  0  0  0  0  0  0  0  0  0
  -62.9356    0.5918   -0.0000 C   0  0  0  0  0  0  0  0  0  0  0  0
  -66.8535    1.3494   -0.0000 O   0  0  0  0  0  0  0  0  0  0  0  0
  -68.1556    3.5865   -0.0000 C   0  0  0  0  0  0  0  0  0  0  0  0
  -61.6572    1.3612   -0.0000 C   0  0  0  0  0  0  0  0  0  0  0  0
  -62.9474   -0.8878   -0.0000 C   0  0  0  0  0  0  0  0  0  0  0  0
  -69.4576    2.8526   -0.0000 N   0  0  0  0  0  0  0  0  0  0  0  0
  -68.1674    5.1016   -0.0000 C   0  0  0  0  0  0  0  0  0  0  0  0
  -60.3670    0.6273   -0.0000 C   0  0  0  0  0  0  0  0  0  0  0  0
  -61.6691   -1.6216   -0.0000 C   0  0  0  0  0  0  0  0  0  0  0  0
  -70.7715    3.6102   -0.0000 C   0  0  0  0  0  0  0  0  0  0  0  0
  -66.8772    5.8592   -0.0000 C   0  0  0  0  0  0  0  0  0  0  0  0
  -60.3789   -0.8641   -0.0000 C   0  0  0  0  0  0  0  0  0  0  0  0
  -70.7833    5.1253   -0.0000 O   0  0  0  0  0  0  0  0  0  0  0  0
  -72.0735    2.8763   -0.0000 C   0  0  0  0  0  0  0  0  0  0  0  0
  -66.9009    7.3742   -0.0000 C   0  0  0  0  0  0  0  0  0  0  0  0
  -65.5870    5.1253   -0.0000 C   0  0  0  0  0  0  0  0  0  0  0  0
  -73.3756    3.6339   -0.0000 N   0  0  0  0  0  0  0  0  0  0  0  0
  -72.0854    1.3849   -0.0000 C   0  0  0  0  0  0  0  0  0  0  0  0
  -65.6107    8.1318   -0.0000 C   0  0  0  0  0  0  0  0  0  0  0  0
  -64.3205    5.8828   -0.0000 C   0  0  0  0  0  0  0  0  0  0  0  0
  -74.6894    2.9000   -0.0000 C   0  0  0  0  0  0  0  0  0  0  0  0
  -70.8070    0.6510   -0.0000 S   0  0  0  0  0  0  0  0  0  0  0  0
  -64.3205    7.3979   -0.0000 C   0  0  0  0  0  0  0  0  0  0  0  0
  -74.7013    1.4086   -0.0000 O   0  0  0  0  0  0  0  0  0  0  0  0
  -76.0033    3.6575   -0.0000 C   0  0  0  0  0  0  0  0  0  0  0  0
  -63.0303    8.1555   -0.0000 O   0  0  0  0  0  0  0  0  0  0  0  0
  -77.3172    2.9237   -0.0000 N   0  0  0  0  0  0  0  0  0  0  0  0
  -76.0151    5.1726   -0.0000 C   0  0  0  0  0  0  0  0  0  0  0  0
  1  2  1  0  0  0  0
  2  3  1  0  0  0  0
  3  4  1  6  0  0  0
  3  5  1  0  0  0  0
  4  6  1  0  0  0  0
  5  7  2  0  0  0  0
  5  8  1  0  0  0  0
  6  9  2  0  0  0  0
  6 10  1  0  0  0  0
 10 11  1  1  0  0  0
 10 12  1  0  0  0  0
 11 13  1  0  0  0  0
 12 14  1  0  0  0  0
 13 15  2  0  0  0  0
 13 16  1  0  0  0  0
 14 17  1  0  0  0  0
 14 18  2  0  0  0  0
 16 19  1  6  0  0  0
 16 20  1  0  0  0  0
 17 21  2  0  0  0  0
 17 22  1  0  0  0  0
 18 23  1  0  0  0  0
 19 24  1  0  0  0  0
 20 25  1  0  0  0  0
 21 26  1  0  0  0  0
 22 27  2  0  0  0  0
 24 28  2  0  0  0  0
 24 29  1  0  0  0  0
 25 30  1  0  0  0  0
 26 31  2  0  0  0  0
 29 32  1  1  0  0  0
 29 33  1  0  0  0  0
 30 34  2  0  0  0  0
 30 35  1  0  0  0  0
 32 36  1  0  0  0  0
 33 37  1  0  0  0  0
 36 38  2  0  0  0  0
 36 39  1  0  0  0  0
 37 40  1  0  0  0  0
 39 41  1  6  0  0  0
 39 42  1  0  0  0  0
 40 43  1  0  0  0  0
 41 44  1  0  0  0  0
 42 45  1  0  0  0  0
 43 46  1  0  0  0  0
 44 47  2  0  0  0  0
 44 48  1  0  0  0  0
 48 49  1  1  0  0  0
 48 50  1  0  0  0  0
 49 51  1  0  0  0  0
 50 52  1  1  0  0  0
 50 53  1  0  0  0  0
 51 54  2  0  0  0  0
 51 55  1  0  0  0  0
 55 56  1  6  0  0  0
 55 57  1  0  0  0  0
 56 58  1  0  0  0  0
 57 59  1  0  0  0  0
 58 60  2  0  0  0  0
 58 61  1  0  0  0  0
 59 62  1  0  0  0  0
 61 63  1  1  0  0  0
 61 64  1  0  0  0  0
 62 65  2  0  0  0  0
 62 66  1  0  0  0  0
 63 67  1  0  0  0  0
 64 68  1  0  0  0  0
 67 69  2  0  0  0  0
 67 70  1  0  0  0  0
 68 71  1  0  0  0  0
 70 72  1  6  0  0  0
 70 73  1  0  0  0  0
 71 74  2  0  0  0  0
 71 75  1  0  0  0  0
 72 76  1  0  0  0  0
 73 77  1  0  0  0  0
 76 78  2  0  0  0  0
 76 79  1  0  0  0  0
 77 80  2  0  0  0  0
 77 81  1  0  0  0  0
 79 82  1  1  0  0  0
 79 83  1  0  0  0  0
 82 84  1  0  0  0  0
 83 85  1  0  0  0  0
 84 86  2  0  0  0  0
 84 87  1  0  0  0  0
 85 88  2  0  0  0  0
 85 89  1  0  0  0  0
 87 90  1  0  0  0  0
 90 91  1  0  0  0  0
 91 92  2  0  0  0  0
 91 93  1  0  0  0  0
 93 94  1  1  0  0  0
 93 95  1  0  0  0  0
 94 96  1  0  0  0  0
 95 97  1  0  0  0  0
 96 98  2  0  0  0  0
 96 99  1  0  0  0  0
 97100  1  0  0  0  0
 99101  1  6  0  0  0
 99102  1  0  0  0  0
100103  2  0  0  0  0
100104  1  0  0  0  0
101105  1  0  0  0  0
102106  1  0  0  0  0
105107  2  0  0  0  0
105108  1  0  0  0  0
106109  2  0  0  0  0
106110  1  0  0  0  0
108111  1  1  0  0  0
108112  1  0  0  0  0
109113  1  0  0  0  0
110114  2  0  0  0  0
111115  1  0  0  0  0
112116  1  0  0  0  0
113117  2  0  0  0  0
115118  2  0  0  0  0
115119  1  0  0  0  0
116120  1  0  0  0  0
116121  1  0  0  0  0
119122  1  6  0  0  0
119123  1  0  0  0  0
122124  1  0  0  0  0
123125  1  0  0  0  0
124126  2  0  0  0  0
124127  1  0  0  0  0
127128  1  1  0  0  0
127129  1  0  0  0  0
128130  1  0  0  0  0
129131  1  0  0  0  0
130132  2  0  0  0  0
130133  1  0  0  0  0
131134  2  0  0  0  0
131135  1  0  0  0  0
133136  1  6  0  0  0
133137  1  0  0  0  0
136138  1  0  0  0  0
137139  1  0  0  0  0
138140  2  0  0  0  0
138141  1  0  0  0  0
139142  2  0  0  0  0
139143  1  0  0  0  0
141144  1  1  0  0  0
141145  1  0  0  0  0
142146  1  0  0  0  0
143147  2  0  0  0  0
144148  1  0  0  0  0
145149  1  0  0  0  0
146150  2  0  0  0  0
148151  2  0  0  0  0
148152  1  0  0  0  0
149153  2  0  0  0  0
149154  1  0  0  0  0
152155  1  6  0  0  0
152156  1  0  0  0  0
153157  1  0  0  0  0
154158  2  0  0  0  0
155159  1  0  0  0  0
156160  1  0  0  0  0
157161  2  0  0  0  0
159162  2  0  0  0  0
159163  1  0  0  0  0
161164  1  0  0  0  0
163165  1  1  0  0  0
163166  1  0  0  0  0
 21 23  1  0  0  0  0
 27 31  1  0  0  0  0
114117  1  0  0  0  0
147150  1  0  0  0  0
158161  1  0  0  0  0
M  END
>  <MolRegNo>
1625089

>  <m>
=

>  <Value>
1700

>  <Unit>
nM

>  <Type>
Ki

>  <pValue>
5.77

>  <Ligand Efficiency>
0

>  <Binding Efficiency>
2.4

>  <Surface Efficiency>
0

>  <Assay Index>
831551

>  <Assay Category>


>  <Assay Organism>
Homo sapiens

>  <Target ID>
56

>  <Target Name>
Androgen Receptor

>  <Target Organism>
Homo sapiens

>  <Target Description>
Target is a single protein chain

>  <Sequence Accession>
P10275

>  <Reference>
Medchemcomm 4 (1), 187-192 (2013)

>  <Pubmed ID>


>  <DOI>
10.1039/C2MD20182H

$$$$
1625088
Actelion Java MolfileCreator 1.0

163165  0  0  0  0  0  0  0  0999 V2000
    0.0000   -0.0000   -0.0000 S   0  0  0  0  0  0  0  0  0  0  0  0
   -1.3167    0.7592   -0.0000 C   0  0  0  0  0  0  0  0  0  0  0  0
   -1.3285    2.2656   -0.0000 C   0  0  0  0  0  0  0  0  0  0  0  0
   -2.6333    3.0248   -0.0000 N   0  0  0  0  0  0  0  0  0  0  0  0
   -0.0356    3.0248   -0.0000 C   0  0  0  0  0  0  0  0  0  0  0  0
   -3.9500    2.2893   -0.0000 C   0  0  0  0  0  0  0  0  0  0  0  0
   -0.0474    4.5312   -0.0000 O   0  0  0  0  0  0  0  0  0  0  0  0
    1.2455    2.2893   -0.0000 O   0  0  0  0  0  0  0  0  0  0  0  0
   -3.9618    0.8066   -0.0000 O   0  0  0  0  0  0  0  0  0  0  0  0
   -5.2548    3.0485   -0.0000 C   0  0  0  0  0  0  0  0  0  0  0  0
   -6.5715    2.3131   -0.0000 N   0  0  0  0  0  0  0  0  0  0  0  0
   -5.2666    4.5549   -0.0000 C   0  0  0  0  0  0  0  0  0  0  0  0
   -7.8763    3.0722   -0.0000 C   0  0  0  0  0  0  0  0  0  0  0  0
   -3.9856    5.3141   -0.0000 C   0  0  0  0  0  0  0  0  0  0  0  0
   -7.8881    4.5787   -0.0000 O   0  0  0  0  0  0  0  0  0  0  0  0
   -9.1929    2.3368   -0.0000 C   0  0  0  0  0  0  0  0  0  0  0  0
   -3.9974    6.8324   -0.0000 C   0  0  0  0  0  0  0  0  0  0  0  0
  -10.4977    3.0959   -0.0000 N   0  0  0  0  0  0  0  0  0  0  0  0
   -9.2048    0.8541   -0.0000 C   0  0  0  0  0  0  0  0  0  0  0  0
   -2.7045    7.5916   -0.0000 N   0  0  0  0  0  0  0  0  0  0  0  0
  -11.8144    2.3605   -0.0000 C   0  0  0  0  0  0  0  0  0  0  0  0
   -7.9118    0.1186   -0.0000 C   0  0  0  0  0  0  0  0  0  0  0  0
   -2.7164    9.0980   -0.0000 C   0  0  0  0  0  0  0  0  0  0  0  0
  -11.8262    0.8778   -0.0000 O   0  0  0  0  0  0  0  0  0  0  0  0
  -13.1310    3.1197   -0.0000 C   0  0  0  0  0  0  0  0  0  0  0  0
   -7.9237   -1.3641   -0.0000 C   0  0  0  0  0  0  0  0  0  0  0  0
   -1.4353    9.8572   -0.0000 N   0  0  0  0  0  0  0  0  0  0  0  0
   -4.0330    9.8572   -0.0000 N   0  0  0  0  0  0  0  0  0  0  0  0
  -14.4358    2.3842   -0.0000 N   0  0  0  0  0  0  0  0  0  0  0  0
  -13.1429    4.6261   -0.0000 C   0  0  0  0  0  0  0  0  0  0  0  0
   -6.6426   -2.0995   -0.0000 O   0  0  0  0  0  0  0  0  0  0  0  0
   -9.2404   -2.0995   -0.0000 O   0  0  0  0  0  0  0  0  0  0  0  0
  -15.7525    3.1434   -0.0000 C   0  0  0  0  0  0  0  0  0  0  0  0
  -11.8500    5.3853   -0.0000 C   0  0  0  0  0  0  0  0  0  0  0  0
  -15.7644    4.6498   -0.0000 O   0  0  0  0  0  0  0  0  0  0  0  0
  -17.0573    2.4080   -0.0000 C   0  0  0  0  0  0  0  0  0  0  0  0
  -11.8618    6.9036   -0.0000 C   0  0  0  0  0  0  0  0  0  0  0  0
  -18.3740    3.1671   -0.0000 N   0  0  0  0  0  0  0  0  0  0  0  0
  -17.0692    0.9252   -0.0000 C   0  0  0  0  0  0  0  0  0  0  0  0
  -10.5689    7.6627   -0.0000 C   0  0  0  0  0  0  0  0  0  0  0  0
  -19.6788    2.4317   -0.0000 C   0  0  0  0  0  0  0  0  0  0  0  0
  -15.7881    0.1898   -0.0000 S   0  0  0  0  0  0  0  0  0  0  0  0
  -10.5807    9.1692   -0.0000 N   0  0  0  0  0  0  0  0  0  0  0  0
  -19.6906    0.9489   -0.0000 O   0  0  0  0  0  0  0  0  0  0  0  0
  -20.9954    3.1908   -0.0000 C   0  0  0  0  0  0  0  0  0  0  0  0
  -22.3002    2.4554   -0.0000 N   0  0  0  0  0  0  0  0  0  0  0  0
  -21.0073    4.6973   -0.0000 C   0  0  0  0  0  0  0  0  0  0  0  0
  -23.6169    3.2146   -0.0000 C   0  0  0  0  0  0  0  0  0  0  0  0
  -19.7144    5.4564   -0.0000 O   0  0  0  0  0  0  0  0  0  0  0  0
  -22.3121    5.4564   -0.0000 C   0  0  0  0  0  0  0  0  0  0  0  0
  -23.6288    4.7210   -0.0000 O   0  0  0  0  0  0  0  0  0  0  0  0
  -24.9336    2.4791   -0.0000 C   0  0  0  0  0  0  0  0  0  0  0  0
  -26.2384    3.2383   -0.0000 N   0  0  0  0  0  0  0  0  0  0  0  0
  -24.9454    0.9964   -0.0000 C   0  0  0  0  0  0  0  0  0  0  0  0
  -27.5550    2.5028   -0.0000 C   0  0  0  0  0  0  0  0  0  0  0  0
  -23.6525    0.2610   -0.0000 C   0  0  0  0  0  0  0  0  0  0  0  0
  -27.5669    1.0201   -0.0000 O   0  0  0  0  0  0  0  0  0  0  0  0
  -28.8598    3.2620   -0.0000 C   0  0  0  0  0  0  0  0  0  0  0  0
  -23.6643   -1.2218   -0.0000 C   0  0  0  0  0  0  0  0  0  0  0  0
  -30.1765    2.5266   -0.0000 N   0  0  0  0  0  0  0  0  0  0  0  0
  -28.8717    4.7685   -0.0000 C   0  0  0  0  0  0  0  0  0  0  0  0
  -22.3714   -1.9572   -0.0000 O   0  0  0  0  0  0  0  0  0  0  0  0
  -24.9810   -1.9572   -0.0000 O   0  0  0  0  0  0  0  0  0  0  0  0
  -31.4813    3.2857   -0.0000 C   0  0  0  0  0  0  0  0  0  0  0  0
  -27.5906    5.5276   -0.0000 C   0  0  0  0  0  0  0  0  0  0  0  0
  -31.4931    4.7922   -0.0000 O   0  0  0  0  0  0  0  0  0  0  0  0
  -32.7979    2.5503   -0.0000 C   0  0  0  0  0  0  0  0  0  0  0  0
  -27.6025    7.0459   -0.0000 C   0  0  0  0  0  0  0  0  0  0  0  0
  -34.1027    3.3094   -0.0000 N   0  0  0  0  0  0  0  0  0  0  0  0
  -32.8098    1.0676   -0.0000 C   0  0  0  0  0  0  0  0  0  0  0  0
  -26.3095    7.8051   -0.0000 O   0  0  0  0  0  0  0  0  0  0  0  0
  -28.9073    7.8051   -0.0000 O   0  0  0  0  0  0  0  0  0  0  0  0
  -35.4194    2.5740   -0.0000 C   0  0  0  0  0  0  0  0  0  0  0  0
  -31.5169    0.3321   -0.0000 C   0  0  0  0  0  0  0  0  0  0  0  0
  -35.4313    1.0913   -0.0000 O   0  0  0  0  0  0  0  0  0  0  0  0
  -36.7242    3.3332   -0.0000 C   0  0  0  0  0  0  0  0  0  0  0  0
  -31.5287   -1.1506   -0.0000 O   0  0  0  0  0  0  0  0  0  0  0  0
  -30.2358    1.0913   -0.0000 O   0  0  0  0  0  0  0  0  0  0  0  0
  -38.0409    2.5977   -0.0000 N   0  0  0  0  0  0  0  0  0  0  0  0
  -36.7361    4.8396   -0.0000 C   0  0  0  0  0  0  0  0  0  0  0  0
  -39.3575    3.3569   -0.0000 C   0  0  0  0  0  0  0  0  0  0  0  0
  -35.4550    5.5988   -0.0000 C   0  0  0  0  0  0  0  0  0  0  0  0
  -39.3694    4.8633   -0.0000 O   0  0  0  0  0  0  0  0  0  0  0  0
  -40.6623    2.6215   -0.0000 C   0  0  0  0  0  0  0  0  0  0  0  0
  -35.4669    7.1171   -0.0000 O   0  0  0  0  0  0  0  0  0  0  0  0
  -34.1621    4.8633   -0.0000 N   0  0  0  0  0  0  0  0  0  0  0  0
  -41.9790    3.3806   -0.0000 N   0  0  0  0  0  0  0  0  0  0  0  0
  -43.2838    2.6452   -0.0000 C   0  0  0  0  0  0  0  0  0  0  0  0
  -43.2957    1.1625   -0.0000 O   0  0  0  0  0  0  0  0  0  0  0  0
  -44.6005    3.4043   -0.0000 C   0  0  0  0  0  0  0  0  0  0  0  0
  -45.9053    2.6689   -0.0000 N   0  0  0  0  0  0  0  0  0  0  0  0
  -44.6123    4.9108   -0.0000 C   0  0  0  0  0  0  0  0  0  0  0  0
  -47.2219    3.4281   -0.0000 C   0  0  0  0  0  0  0  0  0  0  0  0
  -43.3194    5.6700   -0.0000 C   0  0  0  0  0  0  0  0  0  0  0  0
  -47.2338    4.9345   -0.0000 O   0  0  0  0  0  0  0  0  0  0  0  0
  -48.5267    2.6926   -0.0000 C   0  0  0  0  0  0  0  0  0  0  0  0
  -43.3312    7.1883   -0.0000 C   0  0  0  0  0  0  0  0  0  0  0  0
  -49.8434    3.4518   -0.0000 N   0  0  0  0  0  0  0  0  0  0  0  0
  -48.5386    1.2099   -0.0000 C   0  0  0  0  0  0  0  0  0  0  0  0
  -42.0502    7.9474   -0.0000 O   0  0  0  0  0  0  0  0  0  0  0  0
  -44.6479    7.9474   -0.0000 O   0  0  0  0  0  0  0  0  0  0  0  0
  -51.1482    2.7164   -0.0000 C   0  0  0  0  0  0  0  0  0  0  0  0
  -47.2575    0.4745   -0.0000 C   0  0  0  0  0  0  0  0  0  0  0  0
  -51.1600    1.2336   -0.0000 O   0  0  0  0  0  0  0  0  0  0  0  0
  -52.4648    3.4755   -0.0000 C   0  0  0  0  0  0  0  0  0  0  0  0
  -45.9764    1.2336   -0.0000 C   0  0  0  0  0  0  0  0  0  0  0  0
  -47.2694   -1.0083   -0.0000 C   0  0  0  0  0  0  0  0  0  0  0  0
  -53.7696    2.7401   -0.0000 N   0  0  0  0  0  0  0  0  0  0  0  0
  -52.4767    4.9820   -0.0000 C   0  0  0  0  0  0  0  0  0  0  0  0
  -44.6954    0.4982   -0.0000 C   0  0  0  0  0  0  0  0  0  0  0  0
  -45.9883   -1.7437   -0.0000 C   0  0  0  0  0  0  0  0  0  0  0  0
  -55.0863    3.4992   -0.0000 C   0  0  0  0  0  0  0  0  0  0  0  0
  -51.1838    5.7411   -0.0000 C   0  0  0  0  0  0  0  0  0  0  0  0
  -44.7072   -0.9845   -0.0000 C   0  0  0  0  0  0  0  0  0  0  0  0
  -55.0982    5.0057   -0.0000 O   0  0  0  0  0  0  0  0  0  0  0  0
  -56.4030    2.7638   -0.0000 C   0  0  0  0  0  0  0  0  0  0  0  0
  -49.9027    5.0057   -0.0000 C   0  0  0  0  0  0  0  0  0  0  0  0
  -51.1956    7.2594   -0.0000 C   0  0  0  0  0  0  0  0  0  0  0  0
  -57.7078    3.5230   -0.0000 N   0  0  0  0  0  0  0  0  0  0  0  0
  -56.4148    1.2811   -0.0000 C   0  0  0  0  0  0  0  0  0  0  0  0
  -59.0244    2.7875   -0.0000 C   0  0  0  0  0  0  0  0  0  0  0  0
  -55.1219    0.5456   -0.0000 S   0  0  0  0  0  0  0  0  0  0  0  0
  -59.0363    1.3048   -0.0000 O   0  0  0  0  0  0  0  0  0  0  0  0
  -60.3292    3.5467   -0.0000 C   0  0  0  0  0  0  0  0  0  0  0  0
  -61.6459    2.8113   -0.0000 N   0  0  0  0  0  0  0  0  0  0  0  0
  -60.3411    5.0531   -0.0000 C   0  0  0  0  0  0  0  0  0  0  0  0
  -62.9507    3.5704   -0.0000 C   0  0  0  0  0  0  0  0  0  0  0  0
  -59.0600    5.8123   -0.0000 C   0  0  0  0  0  0  0  0  0  0  0  0
  -62.9626    5.0769   -0.0000 O   0  0  0  0  0  0  0  0  0  0  0  0
  -64.2674    2.8350   -0.0000 C   0  0  0  0  0  0  0  0  0  0  0  0
  -59.0719    7.3306   -0.0000 O   0  0  0  0  0  0  0  0  0  0  0  0
  -57.7671    5.0769   -0.0000 N   0  0  0  0  0  0  0  0  0  0  0  0
  -65.5722    3.5941   -0.0000 N   0  0  0  0  0  0  0  0  0  0  0  0
  -64.2792    1.3522   -0.0000 C   0  0  0  0  0  0  0  0  0  0  0  0
  -66.8888    2.8587   -0.0000 C   0  0  0  0  0  0  0  0  0  0  0  0
  -62.9863    0.6168   -0.0000 C   0  0  0  0  0  0  0  0  0  0  0  0
  -66.9007    1.3760   -0.0000 O   0  0  0  0  0  0  0  0  0  0  0  0
  -68.2055    3.6179   -0.0000 C   0  0  0  0  0  0  0  0  0  0  0  0
  -61.7171    1.3760   -0.0000 C   0  0  0  0  0  0  0  0  0  0  0  0
  -62.9981   -0.8659   -0.0000 C   0  0  0  0  0  0  0  0  0  0  0  0
  -69.5103    2.8824   -0.0000 N   0  0  0  0  0  0  0  0  0  0  0  0
  -68.2174    5.1243   -0.0000 C   0  0  0  0  0  0  0  0  0  0  0  0
  -60.4241    0.6405   -0.0000 C   0  0  0  0  0  0  0  0  0  0  0  0
  -61.7289   -1.6013   -0.0000 C   0  0  0  0  0  0  0  0  0  0  0  0
  -70.8388    3.6416   -0.0000 C   0  0  0  0  0  0  0  0  0  0  0  0
  -66.9244    5.8835   -0.0000 C   0  0  0  0  0  0  0  0  0  0  0  0
  -60.4360   -0.8422   -0.0000 C   0  0  0  0  0  0  0  0  0  0  0  0
  -70.8507    5.1480   -0.0000 O   0  0  0  0  0  0  0  0  0  0  0  0
  -72.1436    2.9061   -0.0000 C   0  0  0  0  0  0  0  0  0  0  0  0
  -66.9363    7.4018   -0.0000 C   0  0  0  0  0  0  0  0  0  0  0  0
  -65.6552    5.1480   -0.0000 C   0  0  0  0  0  0  0  0  0  0  0  0
  -73.4603    3.6653   -0.0000 N   0  0  0  0  0  0  0  0  0  0  0  0
  -72.1555    1.4234   -0.0000 C   0  0  0  0  0  0  0  0  0  0  0  0
  -65.6671    8.1609   -0.0000 C   0  0  0  0  0  0  0  0  0  0  0  0
  -64.3504    5.9072   -0.0000 C   0  0  0  0  0  0  0  0  0  0  0  0
  -74.7532    2.9299   -0.0000 C   0  0  0  0  0  0  0  0  0  0  0  0
  -70.8744    0.6880   -0.0000 S   0  0  0  0  0  0  0  0  0  0  0  0
  -64.3623    7.4255   -0.0000 C   0  0  0  0  0  0  0  0  0  0  0  0
  -74.7651    1.4471   -0.0000 O   0  0  0  0  0  0  0  0  0  0  0  0
  -76.0580    3.6890   -0.0000 C   0  0  0  0  0  0  0  0  0  0  0  0
  -63.0693    8.1847   -0.0000 O   0  0  0  0  0  0  0  0  0  0  0  0
  -77.3628    2.9536   -0.0000 N   0  0  0  0  0  0  0  0  0  0  0  0
  -76.0699    5.1955   -0.0000 C   0  0  0  0  0  0  0  0  0  0  0  0
  1  2  1  0  0  0  0
  2  3  1  0  0  0  0
  3  4  1  6  0  0  0
  3  5  1  0  0  0  0
  4  6  1  0  0  0  0
  5  7  2  0  0  0  0
  5  8  1  0  0  0  0
  6  9  2  0  0  0  0
  6 10  1  0  0  0  0
 10 11  1  1  0  0  0
 10 12  1  0  0  0  0
 11 13  1  0  0  0  0
 12 14  1  0  0  0  0
 13 15  2  0  0  0  0
 13 16  1  0  0  0  0
 14 17  1  0  0  0  0
 16 18  1  6  0  0  0
 16 19  1  0  0  0  0
 17 20  1  0  0  0  0
 18 21  1  0  0  0  0
 19 22  1  0  0  0  0
 20 23  1  0  0  0  0
 21 24  2  0  0  0  0
 21 25  1  0  0  0  0
 22 26  1  0  0  0  0
 23 27  2  0  0  0  0
 23 28  1  0  0  0  0
 25 29  1  1  0  0  0
 25 30  1  0  0  0  0
 26 31  2  0  0  0  0
 26 32  1  0  0  0  0
 29 33  1  0  0  0  0
 30 34  1  0  0  0  0
 33 35  2  0  0  0  0
 33 36  1  0  0  0  0
 34 37  1  0  0  0  0
 36 38  1  6  0  0  0
 36 39  1  0  0  0  0
 37 40  1  0  0  0  0
 38 41  1  0  0  0  0
 39 42  1  0  0  0  0
 40 43  1  0  0  0  0
 41 44  2  0  0  0  0
 41 45  1  0  0  0  0
 45 46  1  1  0  0  0
 45 47  1  0  0  0  0
 46 48  1  0  0  0  0
 47 49  1  1  0  0  0
 47 50  1  0  0  0  0
 48 51  2  0  0  0  0
 48 52  1  0  0  0  0
 52 53  1  6  0  0  0
 52 54  1  0  0  0  0
 53 55  1  0  0  0  0
 54 56  1  0  0  0  0
 55 57  2  0  0  0  0
 55 58  1  0  0  0  0
 56 59  1  0  0  0  0
 58 60  1  1  0  0  0
 58 61  1  0  0  0  0
 59 62  2  0  0  0  0
 59 63  1  0  0  0  0
 60 64  1  0  0  0  0
 61 65  1  0  0  0  0
 64 66  2  0  0  0  0
 64 67  1  0  0  0  0
 65 68  1  0  0  0  0
 67 69  1  6  0  0  0
 67 70  1  0  0  0  0
 68 71  2  0  0  0  0
 68 72  1  0  0  0  0
 69 73  1  0  0  0  0
 70 74  1  0  0  0  0
 73 75  2  0  0  0  0
 73 76  1  0  0  0  0
 74 77  2  0  0  0  0
 74 78  1  0  0  0  0
 76 79  1  1  0  0  0
 76 80  1  0  0  0  0
 79 81  1  0  0  0  0
 80 82  1  0  0  0  0
 81 83  2  0  0  0  0
 81 84  1  0  0  0  0
 82 85  2  0  0  0  0
 82 86  1  0  0  0  0
 84 87  1  0  0  0  0
 87 88  1  0  0  0  0
 88 89  2  0  0  0  0
 88 90  1  0  0  0  0
 90 91  1  1  0  0  0
 90 92  1  0  0  0  0
 91 93  1  0  0  0  0
 92 94  1  0  0  0  0
 93 95  2  0  0  0  0
 93 96  1  0  0  0  0
 94 97  1  0  0  0  0
 96 98  1  6  0  0  0
 96 99  1  0  0  0  0
 97100  2  0  0  0  0
 97101  1  0  0  0  0
 98102  1  0  0  0  0
 99103  1  0  0  0  0
102104  2  0  0  0  0
102105  1  0  0  0  0
103106  2  0  0  0  0
103107  1  0  0  0  0
105108  1  1  0  0  0
105109  1  0  0  0  0
106110  1  0  0  0  0
107111  2  0  0  0  0
108112  1  0  0  0  0
109113  1  0  0  0  0
110114  2  0  0  0  0
112115  2  0  0  0  0
112116  1  0  0  0  0
113117  1  0  0  0  0
113118  1  0  0  0  0
116119  1  6  0  0  0
116120  1  0  0  0  0
119121  1  0  0  0  0
120122  1  0  0  0  0
121123  2  0  0  0  0
121124  1  0  0  0  0
124125  1  1  0  0  0
124126  1  0  0  0  0
125127  1  0  0  0  0
126128  1  0  0  0  0
127129  2  0  0  0  0
127130  1  0  0  0  0
128131  2  0  0  0  0
128132  1  0  0  0  0
130133  1  6  0  0  0
130134  1  0  0  0  0
133135  1  0  0  0  0
134136  1  0  0  0  0
135137  2  0  0  0  0
135138  1  0  0  0  0
136139  2  0  0  0  0
136140  1  0  0  0  0
138141  1  1  0  0  0
138142  1  0  0  0  0
139143  1  0  0  0  0
140144  2  0  0  0  0
141145  1  0  0  0  0
142146  1  0  0  0  0
143147  2  0  0  0  0
145148  2  0  0  0  0
145149  1  0  0  0  0
146150  2  0  0  0  0
146151  1  0  0  0  0
149152  1  6  0  0  0
149153  1  0  0  0  0
150154  1  0  0  0  0
151155  2  0  0  0  0
152156  1  0  0  0  0
153157  1  0  0  0  0
154158  2  0  0  0  0
156159  2  0  0  0  0
156160  1  0  0  0  0
158161  1  0  0  0  0
160162  1  1  0  0  0
160163  1  0  0  0  0
111114  1  0  0  0  0
144147  1  0  0  0  0
155158  1  0  0  0  0
M  END
>  <MolRegNo>
1625088

>  <m>
=

>  <Value>
2000

>  <Unit>
nM

>  <Type>
Ki

>  <pValue>
5.7

>  <Ligand Efficiency>
0

>  <Binding Efficiency>
2.4

>  <Surface Efficiency>
0

>  <Assay Index>
831551

>  <Assay Category>


>  <Assay Organism>
Homo sapiens

>  <Target ID>
56

>  <Target Name>
Androgen Receptor

>  <Target Organism>
Homo sapiens

>  <Target Description>
Target is a single protein chain

>  <Sequence Accession>
P10275

>  <Reference>
Medchemcomm 4 (1), 187-192 (2013)

>  <Pubmed ID>


>  <DOI>
10.1039/C2MD20182H

$$$$
1625087
Actelion Java MolfileCreator 1.0

186189  0  0  0  0  0  0  0  0999 V2000
    0.0000   -0.0000   -0.0000 S   0  0  0  0  0  0  0  0  0  0  0  0
   -1.3108    0.7626   -0.0000 C   0  0  0  0  0  0  0  0  0  0  0  0
   -1.3227    2.2760   -0.0000 C   0  0  0  0  0  0  0  0  0  0  0  0
   -2.6334    3.0386   -0.0000 N   0  0  0  0  0  0  0  0  0  0  0  0
   -0.0357    3.0386   -0.0000 C   0  0  0  0  0  0  0  0  0  0  0  0
   -3.9442    2.2998   -0.0000 C   0  0  0  0  0  0  0  0  0  0  0  0
   -0.0477    4.5519   -0.0000 O   0  0  0  0  0  0  0  0  0  0  0  0
    1.2512    2.2998   -0.0000 N   0  0  0  0  0  0  0  0  0  0  0  0
   -3.9561    0.7984   -0.0000 O   0  0  0  0  0  0  0  0  0  0  0  0
   -5.2550    3.0624   -0.0000 C   0  0  0  0  0  0  0  0  0  0  0  0
    2.5381    3.0624   -0.0000 C   0  0  0  0  0  0  0  0  0  0  0  0
   -6.5776    2.3236   -0.0000 N   0  0  0  0  0  0  0  0  0  0  0  0
   -5.2669    4.5758   -0.0000 C   0  0  0  0  0  0  0  0  0  0  0  0
    3.8250    2.3236   -0.0000 C   0  0  0  0  0  0  0  0  0  0  0  0
    2.5262    4.5758   -0.0000 C   0  0  0  0  0  0  0  0  0  0  0  0
   -7.9122    3.0863   -0.0000 C   0  0  0  0  0  0  0  0  0  0  0  0
   -3.9800    5.3503   -0.0000 C   0  0  0  0  0  0  0  0  0  0  0  0
    3.8131    0.8341   -0.0000 O   0  0  0  0  0  0  0  0  0  0  0  0
    5.1120    3.0863   -0.0000 N   0  0  0  0  0  0  0  0  0  0  0  0
    1.2154    5.3384   -0.0000 C   0  0  0  0  0  0  0  0  0  0  0  0
    3.8131    5.3384   -0.0000 C   0  0  0  0  0  0  0  0  0  0  0  0
   -7.9242    4.5996   -0.0000 O   0  0  0  0  0  0  0  0  0  0  0  0
   -9.2111    2.3475   -0.0000 C   0  0  0  0  0  0  0  0  0  0  0  0
   -2.6930    4.5996   -0.0000 C   0  0  0  0  0  0  0  0  0  0  0  0
   -3.9919    6.8636   -0.0000 C   0  0  0  0  0  0  0  0  0  0  0  0
    6.4108    2.3475   -0.0000 C   0  0  0  0  0  0  0  0  0  0  0  0
    1.2035    6.8517   -0.0000 C   0  0  0  0  0  0  0  0  0  0  0  0
  -10.5219    3.1101   -0.0000 N   0  0  0  0  0  0  0  0  0  0  0  0
   -9.2230    0.8460   -0.0000 C   0  0  0  0  0  0  0  0  0  0  0  0
   -1.4061    5.3622   -0.0000 C   0  0  0  0  0  0  0  0  0  0  0  0
   -2.7169    7.6263   -0.0000 C   0  0  0  0  0  0  0  0  0  0  0  0
    7.6978    3.1101   -0.0000 C   0  0  0  0  0  0  0  0  0  0  0  0
    6.3989    0.8580   -0.0000 C   0  0  0  0  0  0  0  0  0  0  0  0
  -11.8326    2.3713   -0.0000 C   0  0  0  0  0  0  0  0  0  0  0  0
   -7.9480    0.1072   -0.0000 C   0  0  0  0  0  0  0  0  0  0  0  0
   -1.4180    6.8755   -0.0000 C   0  0  0  0  0  0  0  0  0  0  0  0
    7.6858    4.6234   -0.0000 O   0  0  0  0  0  0  0  0  0  0  0  0
    8.9966    2.3594   -0.0000 N   0  0  0  0  0  0  0  0  0  0  0  0
    7.6858    0.1192   -0.0000 C   0  0  0  0  0  0  0  0  0  0  0  0
  -11.8445    0.8818   -0.0000 O   0  0  0  0  0  0  0  0  0  0  0  0
  -13.1434    3.1339   -0.0000 C   0  0  0  0  0  0  0  0  0  0  0  0
   -7.9599   -1.3823   -0.0000 C   0  0  0  0  0  0  0  0  0  0  0  0
   -6.6491    0.8699   -0.0000 C   0  0  0  0  0  0  0  0  0  0  0  0
   10.2835    3.1220   -0.0000 C   0  0  0  0  0  0  0  0  0  0  0  0
    7.6739   -1.3703   -0.0000 C   0  0  0  0  0  0  0  0  0  0  0  0
  -14.4541    2.3951   -0.0000 N   0  0  0  0  0  0  0  0  0  0  0  0
  -13.1553    4.6473   -0.0000 C   0  0  0  0  0  0  0  0  0  0  0  0
   11.5824    2.3713   -0.0000 C   0  0  0  0  0  0  0  0  0  0  0  0
    8.9609   -2.1091   -0.0000 O   0  0  0  0  0  0  0  0  0  0  0  0
    6.3512   -2.1091   -0.0000 N   0  0  0  0  0  0  0  0  0  0  0  0
  -15.7649    3.1577   -0.0000 C   0  0  0  0  0  0  0  0  0  0  0  0
  -11.8684    5.4099   -0.0000 C   0  0  0  0  0  0  0  0  0  0  0  0
   11.5705    0.8818   -0.0000 O   0  0  0  0  0  0  0  0  0  0  0  0
   12.8693    3.1339   -0.0000 N   0  0  0  0  0  0  0  0  0  0  0  0
  -15.7768    4.6711   -0.0000 O   0  0  0  0  0  0  0  0  0  0  0  0
  -17.0638    2.4190   -0.0000 C   0  0  0  0  0  0  0  0  0  0  0  0
  -11.8803    6.9232   -0.0000 C   0  0  0  0  0  0  0  0  0  0  0  0
   14.1682    2.3951   -0.0000 C   0  0  0  0  0  0  0  0  0  0  0  0
  -18.3983    3.1816   -0.0000 N   0  0  0  0  0  0  0  0  0  0  0  0
  -17.0757    0.9295   -0.0000 C   0  0  0  0  0  0  0  0  0  0  0  0
  -10.5933    7.6978   -0.0000 O   0  0  0  0  0  0  0  0  0  0  0  0
  -13.1910    7.6858   -0.0000 O   0  0  0  0  0  0  0  0  0  0  0  0
   15.4551    3.1577   -0.0000 C   0  0  0  0  0  0  0  0  0  0  0  0
   14.1562    0.9056   -0.0000 C   0  0  0  0  0  0  0  0  0  0  0  0
  -19.6972    2.4428   -0.0000 C   0  0  0  0  0  0  0  0  0  0  0  0
  -15.8007    0.1907   -0.0000 S   0  0  0  0  0  0  0  0  0  0  0  0
   15.4432    4.6711   -0.0000 O   0  0  0  0  0  0  0  0  0  0  0  0
   16.7539    2.4190   -0.0000 N   0  0  0  0  0  0  0  0  0  0  0  0
   15.4432    0.1668   -0.0000 O   0  0  0  0  0  0  0  0  0  0  0  0
   12.8336    0.1549   -0.0000 C   0  0  0  0  0  0  0  0  0  0  0  0
  -19.7091    0.9533   -0.0000 O   0  0  0  0  0  0  0  0  0  0  0  0
  -21.0199    3.2054   -0.0000 C   0  0  0  0  0  0  0  0  0  0  0  0
   18.0409    3.1816   -0.0000 C   0  0  0  0  0  0  0  0  0  0  0  0
  -22.3306    2.4666   -0.0000 N   0  0  0  0  0  0  0  0  0  0  0  0
  -21.0318    4.7187   -0.0000 C   0  0  0  0  0  0  0  0  0  0  0  0
   19.3397    2.4428   -0.0000 C   0  0  0  0  0  0  0  0  0  0  0  0
   18.0290    4.6949   -0.0000 C   0  0  0  0  0  0  0  0  0  0  0  0
  -23.6533    3.2292   -0.0000 C   0  0  0  0  0  0  0  0  0  0  0  0
  -19.7449    5.4933   -0.0000 C   0  0  0  0  0  0  0  0  0  0  0  0
   19.3278    0.9533   -0.0000 O   0  0  0  0  0  0  0  0  0  0  0  0
   20.6266    3.2054   -0.0000 N   0  0  0  0  0  0  0  0  0  0  0  0
   19.3278    5.4575   -0.0000 C   0  0  0  0  0  0  0  0  0  0  0  0
  -23.6652    4.7426   -0.0000 O   0  0  0  0  0  0  0  0  0  0  0  0
  -24.9760    2.4904   -0.0000 C   0  0  0  0  0  0  0  0  0  0  0  0
  -18.4818    4.7426   -0.0000 C   0  0  0  0  0  0  0  0  0  0  0  0
  -19.7568    7.0066   -0.0000 C   0  0  0  0  0  0  0  0  0  0  0  0
   21.9136    2.4666   -0.0000 C   0  0  0  0  0  0  0  0  0  0  0  0
   19.3159    6.9709   -0.0000 C   0  0  0  0  0  0  0  0  0  0  0  0
  -26.2868    3.2531   -0.0000 N   0  0  0  0  0  0  0  0  0  0  0  0
  -24.9879    1.0009   -0.0000 C   0  0  0  0  0  0  0  0  0  0  0  0
  -17.1829    5.5052   -0.0000 C   0  0  0  0  0  0  0  0  0  0  0  0
  -18.4818    7.7693   -0.0000 C   0  0  0  0  0  0  0  0  0  0  0  0
   23.2005    3.2292   -0.0000 C   0  0  0  0  0  0  0  0  0  0  0  0
   21.9017    0.9771   -0.0000 C   0  0  0  0  0  0  0  0  0  0  0  0
   20.6147    7.7335   -0.0000 O   0  0  0  0  0  0  0  0  0  0  0  0
   18.0051    7.7335   -0.0000 O   0  0  0  0  0  0  0  0  0  0  0  0
  -27.6094    2.5143   -0.0000 C   0  0  0  0  0  0  0  0  0  0  0  0
  -23.6891    0.2622   -0.0000 C   0  0  0  0  0  0  0  0  0  0  0  0
  -17.1948    7.0185   -0.0000 C   0  0  0  0  0  0  0  0  0  0  0  0
   23.1886    4.7426   -0.0000 O   0  0  0  0  0  0  0  0  0  0  0  0
   24.4874    2.4904   -0.0000 N   0  0  0  0  0  0  0  0  0  0  0  0
   23.1886    0.2383   -0.0000 C   0  0  0  0  0  0  0  0  0  0  0  0
  -27.6214    1.0248   -0.0000 O   0  0  0  0  0  0  0  0  0  0  0  0
  -28.9202    3.2769   -0.0000 C   0  0  0  0  0  0  0  0  0  0  0  0
  -23.7010   -1.2274   -0.0000 C   0  0  0  0  0  0  0  0  0  0  0  0
   25.7744    3.2531   -0.0000 C   0  0  0  0  0  0  0  0  0  0  0  0
   23.1767   -1.2512   -0.0000 O   0  0  0  0  0  0  0  0  0  0  0  0
   24.4755    1.0009   -0.0000 O   0  0  0  0  0  0  0  0  0  0  0  0
  -30.2310    2.5381   -0.0000 N   0  0  0  0  0  0  0  0  0  0  0  0
  -28.9321    4.8022   -0.0000 C   0  0  0  0  0  0  0  0  0  0  0  0
  -22.4260   -1.9661   -0.0000 N   0  0  0  0  0  0  0  0  0  0  0  0
   27.0613    2.5024   -0.0000 C   0  0  0  0  0  0  0  0  0  0  0  0
   25.7625    4.7664   -0.0000 C   0  0  0  0  0  0  0  0  0  0  0  0
  -27.6333    5.5648   -0.0000 C   0  0  0  0  0  0  0  0  0  0  0  0
  -22.4379   -3.4556   -0.0000 C   0  0  0  0  0  0  0  0  0  0  0  0
   27.0494    1.0129   -0.0000 O   0  0  0  0  0  0  0  0  0  0  0  0
   28.3482    3.2650   -0.0000 N   0  0  0  0  0  0  0  0  0  0  0  0
   27.0494    5.5290   -0.0000 C   0  0  0  0  0  0  0  0  0  0  0  0
   24.4517    5.5290   -0.0000 C   0  0  0  0  0  0  0  0  0  0  0  0
  -27.6452    7.0781   -0.0000 O   0  0  0  0  0  0  0  0  0  0  0  0
  -26.3344    4.8260   -0.0000 N   0  0  0  0  0  0  0  0  0  0  0  0
  -21.1390   -4.1944   -0.0000 N   0  0  0  0  0  0  0  0  0  0  0  0
  -23.7486   -4.1944   -0.0000 N   0  0  0  0  0  0  0  0  0  0  0  0
   29.6352    2.5262   -0.0000 C   0  0  0  0  0  0  0  0  0  0  0  0
   30.9221    3.2888   -0.0000 C   0  0  0  0  0  0  0  0  0  0  0  0
   29.6232    1.0367   -0.0000 C   0  0  0  0  0  0  0  0  0  0  0  0
   30.9102    4.8022   -0.0000 O   0  0  0  0  0  0  0  0  0  0  0  0
   32.2090    2.5500   -0.0000 N   0  0  0  0  0  0  0  0  0  0  0  0
   30.9102    0.2979   -0.0000 C   0  0  0  0  0  0  0  0  0  0  0  0
   33.4960    3.3127   -0.0000 C   0  0  0  0  0  0  0  0  0  0  0  0
   30.8983   -1.1916   -0.0000 C   0  0  0  0  0  0  0  0  0  0  0  0
   34.7948    2.5739   -0.0000 C   0  0  0  0  0  0  0  0  0  0  0  0
   33.4840    4.8260   -0.0000 C   0  0  0  0  0  0  0  0  0  0  0  0
   32.1852   -1.9304   -0.0000 C   0  0  0  0  0  0  0  0  0  0  0  0
   34.7829    1.0844   -0.0000 O   0  0  0  0  0  0  0  0  0  0  0  0
   36.0817    3.3365   -0.0000 N   0  0  0  0  0  0  0  0  0  0  0  0
   32.1733   -3.4318   -0.0000 N   0  0  0  0  0  0  0  0  0  0  0  0
   37.3806    2.5977   -0.0000 C   0  0  0  0  0  0  0  0  0  0  0  0
   38.6675    3.3603   -0.0000 C   0  0  0  0  0  0  0  0  0  0  0  0
   37.3687    1.1082   -0.0000 C   0  0  0  0  0  0  0  0  0  0  0  0
   38.6556    4.8737   -0.0000 O   0  0  0  0  0  0  0  0  0  0  0  0
   39.9664    2.6215   -0.0000 N   0  0  0  0  0  0  0  0  0  0  0  0
   38.6556    0.3694   -0.0000 S   0  0  0  0  0  0  0  0  0  0  0  0
   41.2533    3.3842   -0.0000 C   0  0  0  0  0  0  0  0  0  0  0  0
   42.5521    2.6454   -0.0000 C   0  0  0  0  0  0  0  0  0  0  0  0
   41.2414    4.8975   -0.0000 C   0  0  0  0  0  0  0  0  0  0  0  0
   42.5402    1.1559   -0.0000 O   0  0  0  0  0  0  0  0  0  0  0  0
   43.8391    3.4080   -0.0000 N   0  0  0  0  0  0  0  0  0  0  0  0
   42.5402    5.6720   -0.0000 C   0  0  0  0  0  0  0  0  0  0  0  0
   45.1379    2.6692   -0.0000 C   0  0  0  0  0  0  0  0  0  0  0  0
   42.5283    7.1854   -0.0000 C   0  0  0  0  0  0  0  0  0  0  0  0
   46.4248    3.4318   -0.0000 C   0  0  0  0  0  0  0  0  0  0  0  0
   45.1260    1.1797   -0.0000 C   0  0  0  0  0  0  0  0  0  0  0  0
   43.8152    7.9480   -0.0000 O   0  0  0  0  0  0  0  0  0  0  0  0
   41.2175    7.9480   -0.0000 O   0  0  0  0  0  0  0  0  0  0  0  0
   46.4129    4.9452   -0.0000 O   0  0  0  0  0  0  0  0  0  0  0  0
   47.7237    2.6930   -0.0000 N   0  0  0  0  0  0  0  0  0  0  0  0
   46.4129    0.4409   -0.0000 C   0  0  0  0  0  0  0  0  0  0  0  0
   49.0106    3.4556   -0.0000 C   0  0  0  0  0  0  0  0  0  0  0  0
   46.5559   -1.0486   -0.0000 C   0  0  0  0  0  0  0  0  0  0  0  0
   47.7833    1.0605   -0.0000 C   0  0  0  0  0  0  0  0  0  0  0  0
   50.2976    2.7169   -0.0000 C   0  0  0  0  0  0  0  0  0  0  0  0
   48.9987    4.9690   -0.0000 C   0  0  0  0  0  0  0  0  0  0  0  0
   48.0216   -1.3465   -0.0000 C   0  0  0  0  0  0  0  0  0  0  0  0
   45.5431   -2.1568   -0.0000 C   0  0  0  0  0  0  0  0  0  0  0  0
   48.7723   -0.0477   -0.0000 N   0  0  0  0  0  0  0  0  0  0  0  0
   50.2856    1.2154   -0.0000 O   0  0  0  0  0  0  0  0  0  0  0  0
   51.5845    3.4795   -0.0000 N   0  0  0  0  0  0  0  0  0  0  0  0
   48.4744   -2.7645   -0.0000 C   0  0  0  0  0  0  0  0  0  0  0  0
   45.9959   -3.5748   -0.0000 C   0  0  0  0  0  0  0  0  0  0  0  0
   52.8714    2.7407   -0.0000 C   0  0  0  0  0  0  0  0  0  0  0  0
   47.4496   -3.8727   -0.0000 C   0  0  0  0  0  0  0  0  0  0  0  0
   54.1583    3.5033   -0.0000 C   0  0  0  0  0  0  0  0  0  0  0  0
   52.8595    1.2393   -0.0000 C   0  0  0  0  0  0  0  0  0  0  0  0
   54.1464    5.0166   -0.0000 O   0  0  0  0  0  0  0  0  0  0  0  0
   55.4453    2.7645   -0.0000 N   0  0  0  0  0  0  0  0  0  0  0  0
   54.1464    0.5005   -0.0000 S   0  0  0  0  0  0  0  0  0  0  0  0
   56.7322    3.5271   -0.0000 C   0  0  0  0  0  0  0  0  0  0  0  0
   58.0191    2.7764   -0.0000 C   0  0  0  0  0  0  0  0  0  0  0  0
   56.7203    5.0405   -0.0000 C   0  0  0  0  0  0  0  0  0  0  0  0
   58.0072    1.2869   -0.0000 O   0  0  0  0  0  0  0  0  0  0  0  0
   59.3061    3.5391   -0.0000 O   0  0  0  0  0  0  0  0  0  0  0  0
   58.0072    5.8031   -0.0000 C   0  0  0  0  0  0  0  0  0  0  0  0
   57.9953    7.3164   -0.0000 C   0  0  0  0  0  0  0  0  0  0  0  0
   59.2942    8.0791   -0.0000 O   0  0  0  0  0  0  0  0  0  0  0  0
   56.6845    8.0791   -0.0000 N   0  0  0  0  0  0  0  0  0  0  0  0
  1  2  1  0  0  0  0
  2  3  1  0  0  0  0
  3  4  1  6  0  0  0
  3  5  1  0  0  0  0
  4  6  1  0  0  0  0
  5  7  2  0  0  0  0
  5  8  1  0  0  0  0
  6  9  2  0  0  0  0
  6 10  1  0  0  0  0
 11  8  1  1  0  0  0
 10 12  1  1  0  0  0
 10 13  1  0  0  0  0
 11 14  1  0  0  0  0
 11 15  1  0  0  0  0
 12 16  1  0  0  0  0
 13 17  1  0  0  0  0
 14 18  2  0  0  0  0
 14 19  1  0  0  0  0
 15 20  1  0  0  0  0
 15 21  1  6  0  0  0
 16 22  2  0  0  0  0
 16 23  1  0  0  0  0
 17 24  2  0  0  0  0
 17 25  1  0  0  0  0
 26 19  1  6  0  0  0
 20 27  1  0  0  0  0
 23 28  1  6  0  0  0
 23 29  1  0  0  0  0
 24 30  1  0  0  0  0
 25 31  2  0  0  0  0
 26 32  1  0  0  0  0
 26 33  1  0  0  0  0
 28 34  1  0  0  0  0
 29 35  1  0  0  0  0
 30 36  2  0  0  0  0
 32 37  2  0  0  0  0
 32 38  1  0  0  0  0
 33 39  1  0  0  0  0
 34 40  2  0  0  0  0
 34 41  1  0  0  0  0
 35 42  1  0  0  0  0
 35 43  1  0  0  0  0
 38 44  1  0  0  0  0
 39 45  1  0  0  0  0
 41 46  1  1  0  0  0
 41 47  1  0  0  0  0
 44 48  1  0  0  0  0
 45 49  2  0  0  0  0
 45 50  1  0  0  0  0
 46 51  1  0  0  0  0
 47 52  1  0  0  0  0
 48 53  2  0  0  0  0
 48 54  1  0  0  0  0
 51 55  2  0  0  0  0
 51 56  1  0  0  0  0
 52 57  1  0  0  0  0
 58 54  1  6  0  0  0
 56 59  1  6  0  0  0
 56 60  1  0  0  0  0
 57 61  2  0  0  0  0
 57 62  1  0  0  0  0
 58 63  1  0  0  0  0
 58 64  1  0  0  0  0
 59 65  1  0  0  0  0
 60 66  1  0  0  0  0
 63 67  2  0  0  0  0
 63 68  1  0  0  0  0
 64 69  1  6  0  0  0
 64 70  1  0  0  0  0
 65 71  2  0  0  0  0
 65 72  1  0  0  0  0
 73 68  1  1  0  0  0
 72 74  1  1  0  0  0
 72 75  1  0  0  0  0
 73 76  1  0  0  0  0
 73 77  1  0  0  0  0
 74 78  1  0  0  0  0
 75 79  1  0  0  0  0
 76 80  2  0  0  0  0
 76 81  1  0  0  0  0
 77 82  1  0  0  0  0
 78 83  2  0  0  0  0
 78 84  1  0  0  0  0
 79 85  2  0  0  0  0
 79 86  1  0  0  0  0
 87 81  1  6  0  0  0
 82 88  1  0  0  0  0
 84 89  1  6  0  0  0
 84 90  1  0  0  0  0
 85 91  1  0  0  0  0
 86 92  2  0  0  0  0
 87 93  1  0  0  0  0
 87 94  1  0  0  0  0
 88 95  2  0  0  0  0
 88 96  1  0  0  0  0
 89 97  1  0  0  0  0
 90 98  1  0  0  0  0
 91 99  2  0  0  0  0
 93100  2  0  0  0  0
 93101  1  0  0  0  0
 94102  1  0  0  0  0
 97103  2  0  0  0  0
 97104  1  0  0  0  0
 98105  1  0  0  0  0
106101  1  1  0  0  0
102107  2  0  0  0  0
102108  1  0  0  0  0
104109  1  1  0  0  0
104110  1  0  0  0  0
105111  1  0  0  0  0
106112  1  0  0  0  0
106113  1  0  0  0  0
110114  1  0  0  0  0
111115  1  0  0  0  0
112116  2  0  0  0  0
112117  1  0  0  0  0
113118  1  0  0  0  0
113119  1  0  0  0  0
114120  2  0  0  0  0
114121  1  0  0  0  0
115122  2  0  0  0  0
115123  1  0  0  0  0
124117  1  6  0  0  0
124125  1  0  0  0  0
124126  1  0  0  0  0
125127  2  0  0  0  0
125128  1  0  0  0  0
126129  1  0  0  0  0
130128  1  1  0  0  0
129131  1  0  0  0  0
130132  1  0  0  0  0
130133  1  0  0  0  0
131134  1  0  0  0  0
132135  2  0  0  0  0
132136  1  0  0  0  0
134137  1  0  0  0  0
138136  1  6  0  0  0
138139  1  0  0  0  0
138140  1  0  0  0  0
139141  2  0  0  0  0
139142  1  0  0  0  0
140143  1  0  0  0  0
144142  1  1  0  0  0
144145  1  0  0  0  0
144146  1  0  0  0  0
145147  2  0  0  0  0
145148  1  0  0  0  0
146149  1  0  0  0  0
150148  1  6  0  0  0
149151  1  0  0  0  0
150152  1  0  0  0  0
150153  1  0  0  0  0
151154  2  0  0  0  0
151155  1  0  0  0  0
152156  2  0  0  0  0
152157  1  0  0  0  0
153158  1  0  0  0  0
159157  1  1  0  0  0
158160  1  0  0  0  0
158161  2  0  0  0  0
159162  1  0  0  0  0
159163  1  0  0  0  0
160164  2  0  0  0  0
160165  1  0  0  0  0
161166  1  0  0  0  0
162167  2  0  0  0  0
162168  1  0  0  0  0
164169  1  0  0  0  0
165170  2  0  0  0  0
171168  1  6  0  0  0
169172  2  0  0  0  0
171173  1  0  0  0  0
171174  1  0  0  0  0
173175  2  0  0  0  0
173176  1  0  0  0  0
174177  1  0  0  0  0
178176  1  1  0  0  0
178179  1  0  0  0  0
178180  1  0  0  0  0
179181  2  0  0  0  0
179182  1  0  0  0  0
180183  1  0  0  0  0
183184  1  0  0  0  0
184185  2  0  0  0  0
184186  1  0  0  0  0
 31 36  1  0  0  0  0
 92 99  1  0  0  0  0
164166  1  0  0  0  0
170172  1  0  0  0  0
M  END
>  <MolRegNo>
1625087

>  <m>
=

>  <Value>
3000

>  <Unit>
nM

>  <Type>
Ki

>  <pValue>
5.52

>  <Ligand Efficiency>
0

>  <Binding Efficiency>
2.05

>  <Surface Efficiency>
0

>  <Assay Index>
831551

>  <Assay Category>


>  <Assay Organism>
Homo sapiens

>  <Target ID>
56

>  <Target Name>
Androgen Receptor

>  <Target Organism>
Homo sapiens

>  <Target Description>
Target is a single protein chain

>  <Sequence Accession>
P10275

>  <Reference>
Medchemcomm 4 (1), 187-192 (2013)

>  <Pubmed ID>


>  <DOI>
10.1039/C2MD20182H

$$$$
1625086
Actelion Java MolfileCreator 1.0

181184  0  0  0  0  0  0  0  0999 V2000
    0.0000   -0.0000   -0.0000 S   0  0  0  0  0  0  0  0  0  0  0  0
   -1.3107    0.7626   -0.0000 C   0  0  0  0  0  0  0  0  0  0  0  0
   -1.3226    2.2759   -0.0000 C   0  0  0  0  0  0  0  0  0  0  0  0
   -2.6333    3.0385   -0.0000 N   0  0  0  0  0  0  0  0  0  0  0  0
   -0.0357    3.0385   -0.0000 C   0  0  0  0  0  0  0  0  0  0  0  0
   -3.9441    2.2997   -0.0000 C   0  0  0  0  0  0  0  0  0  0  0  0
   -0.0477    4.5518   -0.0000 O   0  0  0  0  0  0  0  0  0  0  0  0
    1.2511    2.2997   -0.0000 N   0  0  0  0  0  0  0  0  0  0  0  0
   -3.9560    0.7983   -0.0000 O   0  0  0  0  0  0  0  0  0  0  0  0
   -5.2548    3.0623   -0.0000 C   0  0  0  0  0  0  0  0  0  0  0  0
    2.5380    3.0623   -0.0000 C   0  0  0  0  0  0  0  0  0  0  0  0
   -6.5774    2.3235   -0.0000 N   0  0  0  0  0  0  0  0  0  0  0  0
   -5.2667    4.5756   -0.0000 C   0  0  0  0  0  0  0  0  0  0  0  0
    3.8249    2.3235   -0.0000 C   0  0  0  0  0  0  0  0  0  0  0  0
    2.5261    4.5756   -0.0000 C   0  0  0  0  0  0  0  0  0  0  0  0
   -7.8881    3.0861   -0.0000 C   0  0  0  0  0  0  0  0  0  0  0  0
   -3.9798    5.3382   -0.0000 C   0  0  0  0  0  0  0  0  0  0  0  0
    3.8130    0.8341   -0.0000 O   0  0  0  0  0  0  0  0  0  0  0  0
    5.1118    3.0861   -0.0000 N   0  0  0  0  0  0  0  0  0  0  0  0
    1.2154    5.3382   -0.0000 C   0  0  0  0  0  0  0  0  0  0  0  0
    3.8130    5.3501   -0.0000 C   0  0  0  0  0  0  0  0  0  0  0  0
   -7.9000    4.5994   -0.0000 O   0  0  0  0  0  0  0  0  0  0  0  0
   -9.1988    2.3474   -0.0000 C   0  0  0  0  0  0  0  0  0  0  0  0
   -2.7048    4.5994   -0.0000 C   0  0  0  0  0  0  0  0  0  0  0  0
   -3.9917    6.8515   -0.0000 C   0  0  0  0  0  0  0  0  0  0  0  0
    6.3987    2.3474   -0.0000 C   0  0  0  0  0  0  0  0  0  0  0  0
    1.2035    6.8515   -0.0000 C   0  0  0  0  0  0  0  0  0  0  0  0
  -10.5215    3.1100   -0.0000 N   0  0  0  0  0  0  0  0  0  0  0  0
   -9.2108    0.8460   -0.0000 C   0  0  0  0  0  0  0  0  0  0  0  0
   -1.4180    5.3620   -0.0000 C   0  0  0  0  0  0  0  0  0  0  0  0
   -2.7287    7.6141   -0.0000 C   0  0  0  0  0  0  0  0  0  0  0  0
    7.6856    3.1100   -0.0000 C   0  0  0  0  0  0  0  0  0  0  0  0
    6.3868    0.8579   -0.0000 C   0  0  0  0  0  0  0  0  0  0  0  0
  -11.8322    2.3712   -0.0000 C   0  0  0  0  0  0  0  0  0  0  0  0
   -7.9239    0.1072   -0.0000 C   0  0  0  0  0  0  0  0  0  0  0  0
   -1.4299    6.8753   -0.0000 C   0  0  0  0  0  0  0  0  0  0  0  0
    7.6736    4.6232   -0.0000 O   0  0  0  0  0  0  0  0  0  0  0  0
    8.9844    2.3712   -0.0000 N   0  0  0  0  0  0  0  0  0  0  0  0
    7.6736    0.1192   -0.0000 C   0  0  0  0  0  0  0  0  0  0  0  0
  -11.8441    0.8818   -0.0000 O   0  0  0  0  0  0  0  0  0  0  0  0
  -13.1548    3.1338   -0.0000 C   0  0  0  0  0  0  0  0  0  0  0  0
   -7.9358   -1.3822   -0.0000 C   0  0  0  0  0  0  0  0  0  0  0  0
   -6.6370    0.8698   -0.0000 C   0  0  0  0  0  0  0  0  0  0  0  0
   10.2712    3.1338   -0.0000 C   0  0  0  0  0  0  0  0  0  0  0  0
    7.6617   -1.3703   -0.0000 C   0  0  0  0  0  0  0  0  0  0  0  0
  -14.4655    2.3950   -0.0000 N   0  0  0  0  0  0  0  0  0  0  0  0
  -13.1667    4.6471   -0.0000 C   0  0  0  0  0  0  0  0  0  0  0  0
   11.5700    2.3950   -0.0000 C   0  0  0  0  0  0  0  0  0  0  0  0
    8.9486   -2.1091   -0.0000 O   0  0  0  0  0  0  0  0  0  0  0  0
    6.3391   -2.1091   -0.0000 N   0  0  0  0  0  0  0  0  0  0  0  0
  -15.7882    3.1576   -0.0000 C   0  0  0  0  0  0  0  0  0  0  0  0
  -11.8679    5.4216   -0.0000 C   0  0  0  0  0  0  0  0  0  0  0  0
   11.5581    0.9056   -0.0000 O   0  0  0  0  0  0  0  0  0  0  0  0
   12.8569    3.1576   -0.0000 N   0  0  0  0  0  0  0  0  0  0  0  0
  -15.8001    4.6709   -0.0000 O   0  0  0  0  0  0  0  0  0  0  0  0
  -17.0989    2.4189   -0.0000 C   0  0  0  0  0  0  0  0  0  0  0  0
  -11.8798    6.9349   -0.0000 C   0  0  0  0  0  0  0  0  0  0  0  0
   14.1557    2.4069   -0.0000 C   0  0  0  0  0  0  0  0  0  0  0  0
  -18.4215    3.1815   -0.0000 N   0  0  0  0  0  0  0  0  0  0  0  0
  -17.1108    0.9294   -0.0000 C   0  0  0  0  0  0  0  0  0  0  0  0
  -10.5810    7.6975   -0.0000 O   0  0  0  0  0  0  0  0  0  0  0  0
  -13.1906    7.6975   -0.0000 O   0  0  0  0  0  0  0  0  0  0  0  0
   15.4426    3.1695   -0.0000 C   0  0  0  0  0  0  0  0  0  0  0  0
   14.1438    0.9175   -0.0000 C   0  0  0  0  0  0  0  0  0  0  0  0
  -19.7322    2.4427   -0.0000 C   0  0  0  0  0  0  0  0  0  0  0  0
  -15.8239    0.1906   -0.0000 S   0  0  0  0  0  0  0  0  0  0  0  0
   15.4307    4.6828   -0.0000 O   0  0  0  0  0  0  0  0  0  0  0  0
   16.7414    2.4189   -0.0000 N   0  0  0  0  0  0  0  0  0  0  0  0
   15.4307    0.1787   -0.0000 O   0  0  0  0  0  0  0  0  0  0  0  0
   12.8212    0.1787   -0.0000 C   0  0  0  0  0  0  0  0  0  0  0  0
  -19.7441    0.9532   -0.0000 O   0  0  0  0  0  0  0  0  0  0  0  0
  -21.0548    3.2053   -0.0000 C   0  0  0  0  0  0  0  0  0  0  0  0
   18.0283    3.1815   -0.0000 C   0  0  0  0  0  0  0  0  0  0  0  0
  -22.3656    2.4665   -0.0000 N   0  0  0  0  0  0  0  0  0  0  0  0
  -21.0668    4.7186   -0.0000 C   0  0  0  0  0  0  0  0  0  0  0  0
   19.3271    2.4427   -0.0000 C   0  0  0  0  0  0  0  0  0  0  0  0
  -23.6882    3.2291   -0.0000 C   0  0  0  0  0  0  0  0  0  0  0  0
  -19.7680    5.4812   -0.0000 C   0  0  0  0  0  0  0  0  0  0  0  0
   19.3152    0.9532   -0.0000 O   0  0  0  0  0  0  0  0  0  0  0  0
   20.6140    3.2053   -0.0000 N   0  0  0  0  0  0  0  0  0  0  0  0
  -23.7001    4.7424   -0.0000 O   0  0  0  0  0  0  0  0  0  0  0  0
  -24.9989    2.4904   -0.0000 C   0  0  0  0  0  0  0  0  0  0  0  0
  -18.4930    4.7305   -0.0000 C   0  0  0  0  0  0  0  0  0  0  0  0
  -19.7799    6.9945   -0.0000 C   0  0  0  0  0  0  0  0  0  0  0  0
   21.9009    2.4546   -0.0000 C   0  0  0  0  0  0  0  0  0  0  0  0
  -26.3215    3.2530   -0.0000 N   0  0  0  0  0  0  0  0  0  0  0  0
  -25.0108    1.0009   -0.0000 C   0  0  0  0  0  0  0  0  0  0  0  0
  -17.1942    5.5050   -0.0000 C   0  0  0  0  0  0  0  0  0  0  0  0
  -18.5049    7.7690   -0.0000 C   0  0  0  0  0  0  0  0  0  0  0  0
   23.1877    3.2172   -0.0000 C   0  0  0  0  0  0  0  0  0  0  0  0
   21.8889    0.9652   -0.0000 C   0  0  0  0  0  0  0  0  0  0  0  0
  -27.6442    2.5142   -0.0000 C   0  0  0  0  0  0  0  0  0  0  0  0
  -23.7239    0.2621   -0.0000 C   0  0  0  0  0  0  0  0  0  0  0  0
  -17.2061    7.0183   -0.0000 C   0  0  0  0  0  0  0  0  0  0  0  0
   23.1758    4.7305   -0.0000 O   0  0  0  0  0  0  0  0  0  0  0  0
   24.4746    2.4784   -0.0000 N   0  0  0  0  0  0  0  0  0  0  0  0
   23.1758    0.2264   -0.0000 C   0  0  0  0  0  0  0  0  0  0  0  0
  -27.6561    1.0247   -0.0000 O   0  0  0  0  0  0  0  0  0  0  0  0
  -28.9549    3.2768   -0.0000 C   0  0  0  0  0  0  0  0  0  0  0  0
  -23.7359   -1.2273   -0.0000 C   0  0  0  0  0  0  0  0  0  0  0  0
   25.7615    3.2410   -0.0000 C   0  0  0  0  0  0  0  0  0  0  0  0
   23.1639   -1.2631   -0.0000 O   0  0  0  0  0  0  0  0  0  0  0  0
   24.4627    0.9890   -0.0000 O   0  0  0  0  0  0  0  0  0  0  0  0
  -30.2656    2.5380   -0.0000 N   0  0  0  0  0  0  0  0  0  0  0  0
  -28.9668    4.8020   -0.0000 C   0  0  0  0  0  0  0  0  0  0  0  0
  -22.4490   -1.9661   -0.0000 N   0  0  0  0  0  0  0  0  0  0  0  0
   27.0484    2.5023   -0.0000 C   0  0  0  0  0  0  0  0  0  0  0  0
   25.7496    4.7543   -0.0000 C   0  0  0  0  0  0  0  0  0  0  0  0
  -27.6799    5.5646   -0.0000 C   0  0  0  0  0  0  0  0  0  0  0  0
  -22.4609   -3.4555   -0.0000 C   0  0  0  0  0  0  0  0  0  0  0  0
   27.0365    1.0128   -0.0000 O   0  0  0  0  0  0  0  0  0  0  0  0
   28.3353    3.2649   -0.0000 N   0  0  0  0  0  0  0  0  0  0  0  0
   27.0365    5.5169   -0.0000 C   0  0  0  0  0  0  0  0  0  0  0  0
   24.4389    5.5169   -0.0000 C   0  0  0  0  0  0  0  0  0  0  0  0
  -27.6918    7.0779   -0.0000 O   0  0  0  0  0  0  0  0  0  0  0  0
  -26.3811    4.8258   -0.0000 N   0  0  0  0  0  0  0  0  0  0  0  0
  -21.1740   -4.1943   -0.0000 N   0  0  0  0  0  0  0  0  0  0  0  0
  -23.7835   -4.1943   -0.0000 N   0  0  0  0  0  0  0  0  0  0  0  0
   29.6222    2.5142   -0.0000 C   0  0  0  0  0  0  0  0  0  0  0  0
   30.9090    3.2768   -0.0000 C   0  0  0  0  0  0  0  0  0  0  0  0
   29.6102    1.0247   -0.0000 C   0  0  0  0  0  0  0  0  0  0  0  0
   30.8971    4.8020   -0.0000 O   0  0  0  0  0  0  0  0  0  0  0  0
   32.1959    2.5380   -0.0000 N   0  0  0  0  0  0  0  0  0  0  0  0
   30.8971    0.2860   -0.0000 C   0  0  0  0  0  0  0  0  0  0  0  0
   33.4828    3.3006   -0.0000 C   0  0  0  0  0  0  0  0  0  0  0  0
   30.8852   -1.2035   -0.0000 C   0  0  0  0  0  0  0  0  0  0  0  0
   34.7816    2.5619   -0.0000 C   0  0  0  0  0  0  0  0  0  0  0  0
   33.4709    4.8258   -0.0000 C   0  0  0  0  0  0  0  0  0  0  0  0
   32.1721   -1.9422   -0.0000 C   0  0  0  0  0  0  0  0  0  0  0  0
   34.7697    1.0724   -0.0000 O   0  0  0  0  0  0  0  0  0  0  0  0
   36.0685    3.3244   -0.0000 N   0  0  0  0  0  0  0  0  0  0  0  0
   32.1602   -3.4436   -0.0000 N   0  0  0  0  0  0  0  0  0  0  0  0
   37.3673    2.5857   -0.0000 C   0  0  0  0  0  0  0  0  0  0  0  0
   38.6542    3.3483   -0.0000 C   0  0  0  0  0  0  0  0  0  0  0  0
   37.3554    1.0962   -0.0000 C   0  0  0  0  0  0  0  0  0  0  0  0
   38.6423    4.8616   -0.0000 O   0  0  0  0  0  0  0  0  0  0  0  0
   39.9530    2.6095   -0.0000 N   0  0  0  0  0  0  0  0  0  0  0  0
   38.6423    0.3575   -0.0000 S   0  0  0  0  0  0  0  0  0  0  0  0
   41.2399    3.3721   -0.0000 C   0  0  0  0  0  0  0  0  0  0  0  0
   42.5387    2.6333   -0.0000 C   0  0  0  0  0  0  0  0  0  0  0  0
   41.2279    4.8854   -0.0000 C   0  0  0  0  0  0  0  0  0  0  0  0
   42.5267    1.1439   -0.0000 O   0  0  0  0  0  0  0  0  0  0  0  0
   43.8255    3.3959   -0.0000 N   0  0  0  0  0  0  0  0  0  0  0  0
   42.5267    5.6480   -0.0000 C   0  0  0  0  0  0  0  0  0  0  0  0
   45.1243    2.6572   -0.0000 C   0  0  0  0  0  0  0  0  0  0  0  0
   42.5148    7.1613   -0.0000 C   0  0  0  0  0  0  0  0  0  0  0  0
   46.4112    3.4198   -0.0000 C   0  0  0  0  0  0  0  0  0  0  0  0
   45.1124    1.1677   -0.0000 C   0  0  0  0  0  0  0  0  0  0  0  0
   43.8017    7.9239   -0.0000 O   0  0  0  0  0  0  0  0  0  0  0  0
   41.2041    7.9239   -0.0000 O   0  0  0  0  0  0  0  0  0  0  0  0
   46.3993    4.9331   -0.0000 O   0  0  0  0  0  0  0  0  0  0  0  0
   47.7100    2.6810   -0.0000 N   0  0  0  0  0  0  0  0  0  0  0  0
   46.3993    0.4290   -0.0000 C   0  0  0  0  0  0  0  0  0  0  0  0
   48.9969    3.4436   -0.0000 C   0  0  0  0  0  0  0  0  0  0  0  0
   46.5423   -1.0605   -0.0000 C   0  0  0  0  0  0  0  0  0  0  0  0
   47.7696    1.0486   -0.0000 C   0  0  0  0  0  0  0  0  0  0  0  0
   50.2838    2.7048   -0.0000 C   0  0  0  0  0  0  0  0  0  0  0  0
   48.9850    4.9569   -0.0000 C   0  0  0  0  0  0  0  0  0  0  0  0
   48.0079   -1.3584   -0.0000 C   0  0  0  0  0  0  0  0  0  0  0  0
   45.5295   -2.1686   -0.0000 C   0  0  0  0  0  0  0  0  0  0  0  0
   48.7586   -0.0596   -0.0000 N   0  0  0  0  0  0  0  0  0  0  0  0
   50.2719    1.2035   -0.0000 O   0  0  0  0  0  0  0  0  0  0  0  0
   51.5707    3.4674   -0.0000 N   0  0  0  0  0  0  0  0  0  0  0  0
   48.4607   -2.7763   -0.0000 C   0  0  0  0  0  0  0  0  0  0  0  0
   45.9703   -3.5866   -0.0000 C   0  0  0  0  0  0  0  0  0  0  0  0
   52.8576    2.7287   -0.0000 C   0  0  0  0  0  0  0  0  0  0  0  0
   47.4360   -3.8845   -0.0000 C   0  0  0  0  0  0  0  0  0  0  0  0
   54.1444    3.4913   -0.0000 C   0  0  0  0  0  0  0  0  0  0  0  0
   52.8456    1.2273   -0.0000 C   0  0  0  0  0  0  0  0  0  0  0  0
   54.1325    5.0045   -0.0000 O   0  0  0  0  0  0  0  0  0  0  0  0
   55.4313    2.7525   -0.0000 N   0  0  0  0  0  0  0  0  0  0  0  0
   54.1325    0.4885   -0.0000 S   0  0  0  0  0  0  0  0  0  0  0  0
   56.7182    3.5151   -0.0000 C   0  0  0  0  0  0  0  0  0  0  0  0
   58.0051    2.7763   -0.0000 C   0  0  0  0  0  0  0  0  0  0  0  0
   56.7063    5.0284   -0.0000 C   0  0  0  0  0  0  0  0  0  0  0  0
   57.9932    1.2869   -0.0000 O   0  0  0  0  0  0  0  0  0  0  0  0
   59.2920    3.5389   -0.0000 O   0  0  0  0  0  0  0  0  0  0  0  0
   57.9932    5.7910   -0.0000 C   0  0  0  0  0  0  0  0  0  0  0  0
   57.9813    7.3043   -0.0000 C   0  0  0  0  0  0  0  0  0  0  0  0
   59.2801    8.0669   -0.0000 O   0  0  0  0  0  0  0  0  0  0  0  0
   56.6705    8.0669   -0.0000 N   0  0  0  0  0  0  0  0  0  0  0  0
  1  2  1  0  0  0  0
  2  3  1  0  0  0  0
  3  4  1  6  0  0  0
  3  5  1  0  0  0  0
  4  6  1  0  0  0  0
  5  7  2  0  0  0  0
  5  8  1  0  0  0  0
  6  9  2  0  0  0  0
  6 10  1  0  0  0  0
 11  8  1  1  0  0  0
 10 12  1  1  0  0  0
 10 13  1  0  0  0  0
 11 14  1  0  0  0  0
 11 15  1  0  0  0  0
 12 16  1  0  0  0  0
 13 17  1  0  0  0  0
 14 18  2  0  0  0  0
 14 19  1  0  0  0  0
 15 20  1  0  0  0  0
 15 21  1  6  0  0  0
 16 22  2  0  0  0  0
 16 23  1  0  0  0  0
 17 24  1  0  0  0  0
 17 25  1  0  0  0  0
 26 19  1  6  0  0  0
 20 27  1  0  0  0  0
 23 28  1  6  0  0  0
 23 29  1  0  0  0  0
 24 30  1  0  0  0  0
 25 31  1  0  0  0  0
 26 32  1  0  0  0  0
 26 33  1  0  0  0  0
 28 34  1  0  0  0  0
 29 35  1  0  0  0  0
 30 36  1  0  0  0  0
 32 37  2  0  0  0  0
 32 38  1  0  0  0  0
 33 39  1  0  0  0  0
 34 40  2  0  0  0  0
 34 41  1  0  0  0  0
 35 42  1  0  0  0  0
 35 43  1  0  0  0  0
 38 44  1  0  0  0  0
 39 45  1  0  0  0  0
 41 46  1  1  0  0  0
 41 47  1  0  0  0  0
 44 48  1  0  0  0  0
 45 49  2  0  0  0  0
 45 50  1  0  0  0  0
 46 51  1  0  0  0  0
 47 52  1  0  0  0  0
 48 53  2  0  0  0  0
 48 54  1  0  0  0  0
 51 55  2  0  0  0  0
 51 56  1  0  0  0  0
 52 57  1  0  0  0  0
 58 54  1  6  0  0  0
 56 59  1  6  0  0  0
 56 60  1  0  0  0  0
 57 61  2  0  0  0  0
 57 62  1  0  0  0  0
 58 63  1  0  0  0  0
 58 64  1  0  0  0  0
 59 65  1  0  0  0  0
 60 66  1  0  0  0  0
 63 67  2  0  0  0  0
 63 68  1  0  0  0  0
 64 69  1  6  0  0  0
 64 70  1  0  0  0  0
 65 71  2  0  0  0  0
 65 72  1  0  0  0  0
 68 73  1  0  0  0  0
 72 74  1  1  0  0  0
 72 75  1  0  0  0  0
 73 76  1  0  0  0  0
 74 77  1  0  0  0  0
 75 78  1  0  0  0  0
 76 79  2  0  0  0  0
 76 80  1  0  0  0  0
 77 81  2  0  0  0  0
 77 82  1  0  0  0  0
 78 83  2  0  0  0  0
 78 84  1  0  0  0  0
 85 80  1  6  0  0  0
 82 86  1  6  0  0  0
 82 87  1  0  0  0  0
 83 88  1  0  0  0  0
 84 89  2  0  0  0  0
 85 90  1  0  0  0  0
 85 91  1  0  0  0  0
 86 92  1  0  0  0  0
 87 93  1  0  0  0  0
 88 94  2  0  0  0  0
 90 95  2  0  0  0  0
 90 96  1  0  0  0  0
 91 97  1  0  0  0  0
 92 98  2  0  0  0  0
 92 99  1  0  0  0  0
 93100  1  0  0  0  0
101 96  1  1  0  0  0
 97102  2  0  0  0  0
 97103  1  0  0  0  0
 99104  1  1  0  0  0
 99105  1  0  0  0  0
100106  1  0  0  0  0
101107  1  0  0  0  0
101108  1  0  0  0  0
105109  1  0  0  0  0
106110  1  0  0  0  0
107111  2  0  0  0  0
107112  1  0  0  0  0
108113  1  0  0  0  0
108114  1  0  0  0  0
109115  2  0  0  0  0
109116  1  0  0  0  0
110117  2  0  0  0  0
110118  1  0  0  0  0
119112  1  6  0  0  0
119120  1  0  0  0  0
119121  1  0  0  0  0
120122  2  0  0  0  0
120123  1  0  0  0  0
121124  1  0  0  0  0
125123  1  1  0  0  0
124126  1  0  0  0  0
125127  1  0  0  0  0
125128  1  0  0  0  0
126129  1  0  0  0  0
127130  2  0  0  0  0
127131  1  0  0  0  0
129132  1  0  0  0  0
133131  1  6  0  0  0
133134  1  0  0  0  0
133135  1  0  0  0  0
134136  2  0  0  0  0
134137  1  0  0  0  0
135138  1  0  0  0  0
139137  1  1  0  0  0
139140  1  0  0  0  0
139141  1  0  0  0  0
140142  2  0  0  0  0
140143  1  0  0  0  0
141144  1  0  0  0  0
145143  1  6  0  0  0
144146  1  0  0  0  0
145147  1  0  0  0  0
145148  1  0  0  0  0
146149  2  0  0  0  0
146150  1  0  0  0  0
147151  2  0  0  0  0
147152  1  0  0  0  0
148153  1  0  0  0  0
154152  1  1  0  0  0
153155  1  0  0  0  0
153156  2  0  0  0  0
154157  1  0  0  0  0
154158  1  0  0  0  0
155159  2  0  0  0  0
155160  1  0  0  0  0
156161  1  0  0  0  0
157162  2  0  0  0  0
157163  1  0  0  0  0
159164  1  0  0  0  0
160165  2  0  0  0  0
166163  1  6  0  0  0
164167  2  0  0  0  0
166168  1  0  0  0  0
166169  1  0  0  0  0
168170  2  0  0  0  0
168171  1  0  0  0  0
169172  1  0  0  0  0
173171  1  1  0  0  0
173174  1  0  0  0  0
173175  1  0  0  0  0
174176  2  0  0  0  0
174177  1  0  0  0  0
175178  1  0  0  0  0
178179  1  0  0  0  0
179180  2  0  0  0  0
179181  1  0  0  0  0
 31 36  1  0  0  0  0
 89 94  1  0  0  0  0
159161  1  0  0  0  0
165167  1  0  0  0  0
M  END
>  <MolRegNo>
1625086

>  <m>
=

>  <Value>
56000

>  <Unit>
nM

>  <Type>
Ki

>  <pValue>
4.25

>  <Ligand Efficiency>
0

>  <Binding Efficiency>
1.62

>  <Surface Efficiency>
0

>  <Assay Index>
831551

>  <Assay Category>


>  <Assay Organism>
Homo sapiens

>  <Target ID>
56

>  <Target Name>
Androgen Receptor

>  <Target Organism>
Homo sapiens

>  <Target Description>
Target is a single protein chain

>  <Sequence Accession>
P10275

>  <Reference>
Medchemcomm 4 (1), 187-192 (2013)

>  <Pubmed ID>


>  <DOI>
10.1039/C2MD20182H

$$$$
1625085
Actelion Java MolfileCreator 1.0

181184  0  0  0  0  0  0  0  0999 V2000
    0.0000   -0.0000   -0.0000 S   0  0  0  0  0  0  0  0  0  0  0  0
   -1.3110    0.7628   -0.0000 C   0  0  0  0  0  0  0  0  0  0  0  0
   -1.3229    2.2764   -0.0000 C   0  0  0  0  0  0  0  0  0  0  0  0
   -2.6340    3.0392   -0.0000 N   0  0  0  0  0  0  0  0  0  0  0  0
   -0.0358    3.0392   -0.0000 C   0  0  0  0  0  0  0  0  0  0  0  0
   -3.9450    2.3003   -0.0000 C   0  0  0  0  0  0  0  0  0  0  0  0
   -0.0477    4.5528   -0.0000 O   0  0  0  0  0  0  0  0  0  0  0  0
    1.2514    2.2883   -0.0000 N   0  0  0  0  0  0  0  0  0  0  0  0
   -3.9569    0.7985   -0.0000 O   0  0  0  0  0  0  0  0  0  0  0  0
   -5.2560    3.0630   -0.0000 C   0  0  0  0  0  0  0  0  0  0  0  0
    2.5386    3.0511   -0.0000 C   0  0  0  0  0  0  0  0  0  0  0  0
   -6.5671    2.3241   -0.0000 N   0  0  0  0  0  0  0  0  0  0  0  0
   -5.2680    4.5767   -0.0000 C   0  0  0  0  0  0  0  0  0  0  0  0
    3.8258    2.3122   -0.0000 C   0  0  0  0  0  0  0  0  0  0  0  0
    2.5267    4.5648   -0.0000 C   0  0  0  0  0  0  0  0  0  0  0  0
   -7.8900    3.0869   -0.0000 C   0  0  0  0  0  0  0  0  0  0  0  0
   -3.9808    5.3514   -0.0000 C   0  0  0  0  0  0  0  0  0  0  0  0
    3.8139    0.8224   -0.0000 O   0  0  0  0  0  0  0  0  0  0  0  0
    5.1130    3.0750   -0.0000 N   0  0  0  0  0  0  0  0  0  0  0  0
    1.2157    5.3275   -0.0000 C   0  0  0  0  0  0  0  0  0  0  0  0
    3.8139    5.3275   -0.0000 C   0  0  0  0  0  0  0  0  0  0  0  0
   -7.9019    4.6005   -0.0000 O   0  0  0  0  0  0  0  0  0  0  0  0
   -9.2010    2.3479   -0.0000 C   0  0  0  0  0  0  0  0  0  0  0  0
   -2.6936    4.6005   -0.0000 C   0  0  0  0  0  0  0  0  0  0  0  0
   -3.9927    6.8650   -0.0000 C   0  0  0  0  0  0  0  0  0  0  0  0
    6.4121    2.3241   -0.0000 C   0  0  0  0  0  0  0  0  0  0  0  0
    1.2038    6.8412   -0.0000 C   0  0  0  0  0  0  0  0  0  0  0  0
  -10.5240    3.1107   -0.0000 N   0  0  0  0  0  0  0  0  0  0  0  0
   -9.2130    0.8462   -0.0000 C   0  0  0  0  0  0  0  0  0  0  0  0
   -1.4064    5.3633   -0.0000 C   0  0  0  0  0  0  0  0  0  0  0  0
   -2.7174    7.6278   -0.0000 C   0  0  0  0  0  0  0  0  0  0  0  0
    7.6993    3.0869   -0.0000 C   0  0  0  0  0  0  0  0  0  0  0  0
    6.4002    0.8343   -0.0000 C   0  0  0  0  0  0  0  0  0  0  0  0
  -11.8350    2.3718   -0.0000 C   0  0  0  0  0  0  0  0  0  0  0  0
   -7.9258    0.1073   -0.0000 C   0  0  0  0  0  0  0  0  0  0  0  0
   -1.4183    6.8769   -0.0000 C   0  0  0  0  0  0  0  0  0  0  0  0
    7.6874    4.6005   -0.0000 O   0  0  0  0  0  0  0  0  0  0  0  0
    8.9984    2.3360   -0.0000 N   0  0  0  0  0  0  0  0  0  0  0  0
    7.6874    0.0953   -0.0000 C   0  0  0  0  0  0  0  0  0  0  0  0
  -11.8469    0.8820   -0.0000 O   0  0  0  0  0  0  0  0  0  0  0  0
  -13.1460    3.1346   -0.0000 C   0  0  0  0  0  0  0  0  0  0  0  0
   -7.9377   -1.3825   -0.0000 C   0  0  0  0  0  0  0  0  0  0  0  0
   -6.6386    0.8700   -0.0000 C   0  0  0  0  0  0  0  0  0  0  0  0
   10.2856    3.0988   -0.0000 C   0  0  0  0  0  0  0  0  0  0  0  0
    7.6755   -1.3945   -0.0000 C   0  0  0  0  0  0  0  0  0  0  0  0
  -14.4571    2.3956   -0.0000 N   0  0  0  0  0  0  0  0  0  0  0  0
  -13.1580    4.6482   -0.0000 C   0  0  0  0  0  0  0  0  0  0  0  0
   11.5847    2.3599   -0.0000 C   0  0  0  0  0  0  0  0  0  0  0  0
    8.9627   -2.1334   -0.0000 O   0  0  0  0  0  0  0  0  0  0  0  0
    6.3525   -2.1334   -0.0000 N   0  0  0  0  0  0  0  0  0  0  0  0
  -15.7800    3.1584   -0.0000 C   0  0  0  0  0  0  0  0  0  0  0  0
  -11.8708    5.4110   -0.0000 C   0  0  0  0  0  0  0  0  0  0  0  0
   11.5728    0.8700   -0.0000 O   0  0  0  0  0  0  0  0  0  0  0  0
   12.8719    3.1226   -0.0000 N   0  0  0  0  0  0  0  0  0  0  0  0
  -15.7919    4.6720   -0.0000 O   0  0  0  0  0  0  0  0  0  0  0  0
  -17.0791    2.4194   -0.0000 C   0  0  0  0  0  0  0  0  0  0  0  0
  -11.8827    6.9246   -0.0000 C   0  0  0  0  0  0  0  0  0  0  0  0
   14.1710    2.3837   -0.0000 C   0  0  0  0  0  0  0  0  0  0  0  0
  -18.4140    3.1822   -0.0000 N   0  0  0  0  0  0  0  0  0  0  0  0
  -17.0911    0.9296   -0.0000 C   0  0  0  0  0  0  0  0  0  0  0  0
  -10.5955    7.6874   -0.0000 O   0  0  0  0  0  0  0  0  0  0  0  0
  -13.1937    7.6874   -0.0000 O   0  0  0  0  0  0  0  0  0  0  0  0
   15.4582    3.1465   -0.0000 C   0  0  0  0  0  0  0  0  0  0  0  0
   14.1591    0.8939   -0.0000 C   0  0  0  0  0  0  0  0  0  0  0  0
  -19.7131    2.4433   -0.0000 C   0  0  0  0  0  0  0  0  0  0  0  0
  -15.8158    0.1907   -0.0000 S   0  0  0  0  0  0  0  0  0  0  0  0
   15.4463    4.6601   -0.0000 O   0  0  0  0  0  0  0  0  0  0  0  0
   16.7573    2.3956   -0.0000 N   0  0  0  0  0  0  0  0  0  0  0  0
   15.4463    0.1549   -0.0000 O   0  0  0  0  0  0  0  0  0  0  0  0
   12.8362    0.1430   -0.0000 C   0  0  0  0  0  0  0  0  0  0  0  0
  -19.7250    0.9535   -0.0000 O   0  0  0  0  0  0  0  0  0  0  0  0
  -21.0241    3.2061   -0.0000 C   0  0  0  0  0  0  0  0  0  0  0  0
   18.0445    3.1584   -0.0000 C   0  0  0  0  0  0  0  0  0  0  0  0
  -22.3352    2.4671   -0.0000 N   0  0  0  0  0  0  0  0  0  0  0  0
  -21.0361    4.7197   -0.0000 C   0  0  0  0  0  0  0  0  0  0  0  0
   19.3436    2.4075   -0.0000 C   0  0  0  0  0  0  0  0  0  0  0  0
  -23.6581    3.2299   -0.0000 C   0  0  0  0  0  0  0  0  0  0  0  0
  -19.7489    5.4825   -0.0000 C   0  0  0  0  0  0  0  0  0  0  0  0
   19.3317    0.9177   -0.0000 O   0  0  0  0  0  0  0  0  0  0  0  0
   20.6308    3.1703   -0.0000 N   0  0  0  0  0  0  0  0  0  0  0  0
  -23.6700    4.7435   -0.0000 O   0  0  0  0  0  0  0  0  0  0  0  0
  -24.9811    2.4910   -0.0000 C   0  0  0  0  0  0  0  0  0  0  0  0
  -18.4855    4.7316   -0.0000 C   0  0  0  0  0  0  0  0  0  0  0  0
  -19.7608    6.9961   -0.0000 C   0  0  0  0  0  0  0  0  0  0  0  0
   21.9180    2.4194   -0.0000 C   0  0  0  0  0  0  0  0  0  0  0  0
  -26.2921    3.2537   -0.0000 N   0  0  0  0  0  0  0  0  0  0  0  0
  -24.9930    1.0011   -0.0000 C   0  0  0  0  0  0  0  0  0  0  0  0
  -17.1864    5.4944   -0.0000 C   0  0  0  0  0  0  0  0  0  0  0  0
  -18.4855    7.7589   -0.0000 C   0  0  0  0  0  0  0  0  0  0  0  0
   23.2052    3.1822   -0.0000 C   0  0  0  0  0  0  0  0  0  0  0  0
   21.9061    0.9296   -0.0000 C   0  0  0  0  0  0  0  0  0  0  0  0
  -27.6150    2.5148   -0.0000 C   0  0  0  0  0  0  0  0  0  0  0  0
  -23.6939    0.2622   -0.0000 C   0  0  0  0  0  0  0  0  0  0  0  0
  -17.1983    7.0080   -0.0000 C   0  0  0  0  0  0  0  0  0  0  0  0
   23.1933    4.6959   -0.0000 O   0  0  0  0  0  0  0  0  0  0  0  0
   24.4924    2.4314   -0.0000 N   0  0  0  0  0  0  0  0  0  0  0  0
   23.1933    0.1907   -0.0000 C   0  0  0  0  0  0  0  0  0  0  0  0
  -27.6270    1.0250   -0.0000 O   0  0  0  0  0  0  0  0  0  0  0  0
  -28.9261    3.2776   -0.0000 C   0  0  0  0  0  0  0  0  0  0  0  0
  -23.7058   -1.2276   -0.0000 C   0  0  0  0  0  0  0  0  0  0  0  0
   25.7796    3.1941   -0.0000 C   0  0  0  0  0  0  0  0  0  0  0  0
   23.1814   -1.2991   -0.0000 O   0  0  0  0  0  0  0  0  0  0  0  0
   24.4805    0.9535   -0.0000 O   0  0  0  0  0  0  0  0  0  0  0  0
  -30.2371    2.5386   -0.0000 N   0  0  0  0  0  0  0  0  0  0  0  0
  -28.9380    4.8031   -0.0000 C   0  0  0  0  0  0  0  0  0  0  0  0
  -22.4305   -1.9665   -0.0000 N   0  0  0  0  0  0  0  0  0  0  0  0
   27.0668    2.4552   -0.0000 C   0  0  0  0  0  0  0  0  0  0  0  0
   25.7677    4.7078   -0.0000 C   0  0  0  0  0  0  0  0  0  0  0  0
  -27.6389    5.5659   -0.0000 C   0  0  0  0  0  0  0  0  0  0  0  0
  -22.4424   -3.4564   -0.0000 C   0  0  0  0  0  0  0  0  0  0  0  0
   27.0549    0.9654   -0.0000 O   0  0  0  0  0  0  0  0  0  0  0  0
   28.3540    3.2180   -0.0000 N   0  0  0  0  0  0  0  0  0  0  0  0
   27.0549    5.4706   -0.0000 C   0  0  0  0  0  0  0  0  0  0  0  0
   24.4567    5.4706   -0.0000 C   0  0  0  0  0  0  0  0  0  0  0  0
  -27.6508    7.0796   -0.0000 O   0  0  0  0  0  0  0  0  0  0  0  0
  -26.3398    4.8270   -0.0000 N   0  0  0  0  0  0  0  0  0  0  0  0
  -21.1433   -4.1953   -0.0000 N   0  0  0  0  0  0  0  0  0  0  0  0
  -23.7535   -4.1953   -0.0000 N   0  0  0  0  0  0  0  0  0  0  0  0
   29.6412    2.4790   -0.0000 C   0  0  0  0  0  0  0  0  0  0  0  0
   30.9284    3.2418   -0.0000 C   0  0  0  0  0  0  0  0  0  0  0  0
   29.6293    0.9892   -0.0000 C   0  0  0  0  0  0  0  0  0  0  0  0
   30.9165    4.7555   -0.0000 O   0  0  0  0  0  0  0  0  0  0  0  0
   32.2156    2.5029   -0.0000 N   0  0  0  0  0  0  0  0  0  0  0  0
   30.9165    0.2503   -0.0000 C   0  0  0  0  0  0  0  0  0  0  0  0
   33.5028    3.2657   -0.0000 C   0  0  0  0  0  0  0  0  0  0  0  0
   30.9045   -1.2395   -0.0000 C   0  0  0  0  0  0  0  0  0  0  0  0
   34.8019    2.5267   -0.0000 C   0  0  0  0  0  0  0  0  0  0  0  0
   33.4908    4.7793   -0.0000 C   0  0  0  0  0  0  0  0  0  0  0  0
   32.1917   -1.9785   -0.0000 C   0  0  0  0  0  0  0  0  0  0  0  0
   34.7900    1.0369   -0.0000 O   0  0  0  0  0  0  0  0  0  0  0  0
   36.0891    3.2895   -0.0000 N   0  0  0  0  0  0  0  0  0  0  0  0
   32.1798   -3.4802   -0.0000 N   0  0  0  0  0  0  0  0  0  0  0  0
   37.3882    2.5505   -0.0000 C   0  0  0  0  0  0  0  0  0  0  0  0
   38.6754    3.3133   -0.0000 C   0  0  0  0  0  0  0  0  0  0  0  0
   37.3763    1.0607   -0.0000 C   0  0  0  0  0  0  0  0  0  0  0  0
   38.6634    4.8270   -0.0000 O   0  0  0  0  0  0  0  0  0  0  0  0
   39.9745    2.5744   -0.0000 N   0  0  0  0  0  0  0  0  0  0  0  0
   38.6634    0.3218   -0.0000 S   0  0  0  0  0  0  0  0  0  0  0  0
   41.2617    3.3372   -0.0000 C   0  0  0  0  0  0  0  0  0  0  0  0
   42.5608    2.5982   -0.0000 C   0  0  0  0  0  0  0  0  0  0  0  0
   41.2498    4.8508   -0.0000 C   0  0  0  0  0  0  0  0  0  0  0  0
   42.5489    1.1084   -0.0000 O   0  0  0  0  0  0  0  0  0  0  0  0
   43.8480    3.3610   -0.0000 N   0  0  0  0  0  0  0  0  0  0  0  0
   42.5489    5.6136   -0.0000 C   0  0  0  0  0  0  0  0  0  0  0  0
   45.1471    2.6221   -0.0000 C   0  0  0  0  0  0  0  0  0  0  0  0
   42.5369    7.1272   -0.0000 C   0  0  0  0  0  0  0  0  0  0  0  0
   46.4343    3.3848   -0.0000 C   0  0  0  0  0  0  0  0  0  0  0  0
   45.1352    1.1323   -0.0000 C   0  0  0  0  0  0  0  0  0  0  0  0
   43.8241    7.8900   -0.0000 O   0  0  0  0  0  0  0  0  0  0  0  0
   41.2259    7.8900   -0.0000 O   0  0  0  0  0  0  0  0  0  0  0  0
   46.4224    4.8985   -0.0000 O   0  0  0  0  0  0  0  0  0  0  0  0
   47.7334    2.6459   -0.0000 N   0  0  0  0  0  0  0  0  0  0  0  0
   46.4224    0.3933   -0.0000 C   0  0  0  0  0  0  0  0  0  0  0  0
   49.0206    3.4087   -0.0000 C   0  0  0  0  0  0  0  0  0  0  0  0
   46.5654   -1.0965   -0.0000 C   0  0  0  0  0  0  0  0  0  0  0  0
   47.7930    1.0131   -0.0000 C   0  0  0  0  0  0  0  0  0  0  0  0
   50.3078    2.6697   -0.0000 C   0  0  0  0  0  0  0  0  0  0  0  0
   49.0087    4.9223   -0.0000 C   0  0  0  0  0  0  0  0  0  0  0  0
   48.0314   -1.3945   -0.0000 C   0  0  0  0  0  0  0  0  0  0  0  0
   45.5523   -2.2049   -0.0000 C   0  0  0  0  0  0  0  0  0  0  0  0
   48.7822   -0.0953   -0.0000 N   0  0  0  0  0  0  0  0  0  0  0  0
   50.2959    1.1680   -0.0000 O   0  0  0  0  0  0  0  0  0  0  0  0
   51.5950    3.4325   -0.0000 N   0  0  0  0  0  0  0  0  0  0  0  0
   48.4843   -2.8128   -0.0000 C   0  0  0  0  0  0  0  0  0  0  0  0
   46.0052   -3.6232   -0.0000 C   0  0  0  0  0  0  0  0  0  0  0  0
   52.8822    2.6936   -0.0000 C   0  0  0  0  0  0  0  0  0  0  0  0
   47.4593   -3.9212   -0.0000 C   0  0  0  0  0  0  0  0  0  0  0  0
   54.1694    3.4564   -0.0000 C   0  0  0  0  0  0  0  0  0  0  0  0
   52.8702    1.1918   -0.0000 C   0  0  0  0  0  0  0  0  0  0  0  0
   54.1574    4.9700   -0.0000 O   0  0  0  0  0  0  0  0  0  0  0  0
   55.4565    2.7174   -0.0000 N   0  0  0  0  0  0  0  0  0  0  0  0
   54.1574    0.4529   -0.0000 S   0  0  0  0  0  0  0  0  0  0  0  0
   56.7437    3.4802   -0.0000 C   0  0  0  0  0  0  0  0  0  0  0  0
   58.0309    2.7412   -0.0000 C   0  0  0  0  0  0  0  0  0  0  0  0
   56.7318    4.9938   -0.0000 C   0  0  0  0  0  0  0  0  0  0  0  0
   58.0190    1.2514   -0.0000 O   0  0  0  0  0  0  0  0  0  0  0  0
   59.3181    3.5040   -0.0000 O   0  0  0  0  0  0  0  0  0  0  0  0
   58.0190    5.7566   -0.0000 C   0  0  0  0  0  0  0  0  0  0  0  0
   58.0071    7.2703   -0.0000 C   0  0  0  0  0  0  0  0  0  0  0  0
   59.3062    8.0330   -0.0000 O   0  0  0  0  0  0  0  0  0  0  0  0
   56.6961    8.0330   -0.0000 N   0  0  0  0  0  0  0  0  0  0  0  0
  1  2  1  0  0  0  0
  2  3  1  0  0  0  0
  3  4  1  6  0  0  0
  3  5  1  0  0  0  0
  4  6  1  0  0  0  0
  5  7  2  0  0  0  0
  5  8  1  0  0  0  0
  6  9  2  0  0  0  0
  6 10  1  0  0  0  0
 11  8  1  1  0  0  0
 10 12  1  1  0  0  0
 10 13  1  0  0  0  0
 11 14  1  0  0  0  0
 11 15  1  0  0  0  0
 12 16  1  0  0  0  0
 13 17  1  0  0  0  0
 14 18  2  0  0  0  0
 14 19  1  0  0  0  0
 15 20  1  0  0  0  0
 15 21  1  6  0  0  0
 16 22  2  0  0  0  0
 16 23  1  0  0  0  0
 17 24  2  0  0  0  0
 17 25  1  0  0  0  0
 26 19  1  6  0  0  0
 20 27  1  0  0  0  0
 23 28  1  6  0  0  0
 23 29  1  0  0  0  0
 24 30  1  0  0  0  0
 25 31  2  0  0  0  0
 26 32  1  0  0  0  0
 26 33  1  0  0  0  0
 28 34  1  0  0  0  0
 29 35  1  0  0  0  0
 30 36  2  0  0  0  0
 32 37  2  0  0  0  0
 32 38  1  0  0  0  0
 33 39  1  0  0  0  0
 34 40  2  0  0  0  0
 34 41  1  0  0  0  0
 35 42  1  0  0  0  0
 35 43  1  0  0  0  0
 38 44  1  0  0  0  0
 39 45  1  0  0  0  0
 41 46  1  1  0  0  0
 41 47  1  0  0  0  0
 44 48  1  0  0  0  0
 45 49  2  0  0  0  0
 45 50  1  0  0  0  0
 46 51  1  0  0  0  0
 47 52  1  0  0  0  0
 48 53  2  0  0  0  0
 48 54  1  0  0  0  0
 51 55  2  0  0  0  0
 51 56  1  0  0  0  0
 52 57  1  0  0  0  0
 58 54  1  6  0  0  0
 56 59  1  6  0  0  0
 56 60  1  0  0  0  0
 57 61  2  0  0  0  0
 57 62  1  0  0  0  0
 58 63  1  0  0  0  0
 58 64  1  0  0  0  0
 59 65  1  0  0  0  0
 60 66  1  0  0  0  0
 63 67  2  0  0  0  0
 63 68  1  0  0  0  0
 64 69  1  6  0  0  0
 64 70  1  0  0  0  0
 65 71  2  0  0  0  0
 65 72  1  0  0  0  0
 68 73  1  0  0  0  0
 72 74  1  1  0  0  0
 72 75  1  0  0  0  0
 73 76  1  0  0  0  0
 74 77  1  0  0  0  0
 75 78  1  0  0  0  0
 76 79  2  0  0  0  0
 76 80  1  0  0  0  0
 77 81  2  0  0  0  0
 77 82  1  0  0  0  0
 78 83  1  0  0  0  0
 78 84  1  0  0  0  0
 85 80  1  6  0  0  0
 82 86  1  6  0  0  0
 82 87  1  0  0  0  0
 83 88  1  0  0  0  0
 84 89  1  0  0  0  0
 85 90  1  0  0  0  0
 85 91  1  0  0  0  0
 86 92  1  0  0  0  0
 87 93  1  0  0  0  0
 88 94  1  0  0  0  0
 90 95  2  0  0  0  0
 90 96  1  0  0  0  0
 91 97  1  0  0  0  0
 92 98  2  0  0  0  0
 92 99  1  0  0  0  0
 93100  1  0  0  0  0
101 96  1  1  0  0  0
 97102  2  0  0  0  0
 97103  1  0  0  0  0
 99104  1  1  0  0  0
 99105  1  0  0  0  0
100106  1  0  0  0  0
101107  1  0  0  0  0
101108  1  0  0  0  0
105109  1  0  0  0  0
106110  1  0  0  0  0
107111  2  0  0  0  0
107112  1  0  0  0  0
108113  1  0  0  0  0
108114  1  0  0  0  0
109115  2  0  0  0  0
109116  1  0  0  0  0
110117  2  0  0  0  0
110118  1  0  0  0  0
119112  1  6  0  0  0
119120  1  0  0  0  0
119121  1  0  0  0  0
120122  2  0  0  0  0
120123  1  0  0  0  0
121124  1  0  0  0  0
125123  1  1  0  0  0
124126  1  0  0  0  0
125127  1  0  0  0  0
125128  1  0  0  0  0
126129  1  0  0  0  0
127130  2  0  0  0  0
127131  1  0  0  0  0
129132  1  0  0  0  0
133131  1  6  0  0  0
133134  1  0  0  0  0
133135  1  0  0  0  0
134136  2  0  0  0  0
134137  1  0  0  0  0
135138  1  0  0  0  0
139137  1  1  0  0  0
139140  1  0  0  0  0
139141  1  0  0  0  0
140142  2  0  0  0  0
140143  1  0  0  0  0
141144  1  0  0  0  0
145143  1  6  0  0  0
144146  1  0  0  0  0
145147  1  0  0  0  0
145148  1  0  0  0  0
146149  2  0  0  0  0
146150  1  0  0  0  0
147151  2  0  0  0  0
147152  1  0  0  0  0
148153  1  0  0  0  0
154152  1  1  0  0  0
153155  1  0  0  0  0
153156  2  0  0  0  0
154157  1  0  0  0  0
154158  1  0  0  0  0
155159  2  0  0  0  0
155160  1  0  0  0  0
156161  1  0  0  0  0
157162  2  0  0  0  0
157163  1  0  0  0  0
159164  1  0  0  0  0
160165  2  0  0  0  0
166163  1  6  0  0  0
164167  2  0  0  0  0
166168  1  0  0  0  0
166169  1  0  0  0  0
168170  2  0  0  0  0
168171  1  0  0  0  0
169172  1  0  0  0  0
173171  1  1  0  0  0
173174  1  0  0  0  0
173175  1  0  0  0  0
174176  2  0  0  0  0
174177  1  0  0  0  0
175178  1  0  0  0  0
178179  1  0  0  0  0
179180  2  0  0  0  0
179181  1  0  0  0  0
 31 36  1  0  0  0  0
 89 94  1  0  0  0  0
159161  1  0  0  0  0
165167  1  0  0  0  0
M  END
>  <MolRegNo>
1625085

>  <m>
=

>  <Value>
11000

>  <Unit>
nM

>  <Type>
Ki

>  <pValue>
4.96

>  <Ligand Efficiency>
0

>  <Binding Efficiency>
1.89

>  <Surface Efficiency>
0

>  <Assay Index>
831551

>  <Assay Category>


>  <Assay Organism>
Homo sapiens

>  <Target ID>
56

>  <Target Name>
Androgen Receptor

>  <Target Organism>
Homo sapiens

>  <Target Description>
Target is a single protein chain

>  <Sequence Accession>
P10275

>  <Reference>
Medchemcomm 4 (1), 187-192 (2013)

>  <Pubmed ID>


>  <DOI>
10.1039/C2MD20182H

$$$$
1625084
Actelion Java MolfileCreator 1.0

182185  0  0  0  0  0  0  0  0999 V2000
    0.0000   -0.0000   -0.0000 Cl  0  0  0  0  0  0  0  0  0  0  0  0
    1.2990    0.7151   -0.0000 C   0  0  0  0  0  0  0  0  0  0  0  0
    1.3348    2.2167   -0.0000 C   0  0  0  0  0  0  0  0  0  0  0  0
    2.5623   -0.0596   -0.0000 C   0  0  0  0  0  0  0  0  0  0  0  0
    2.6457    2.9556   -0.0000 C   0  0  0  0  0  0  0  0  0  0  0  0
    0.0358    3.0271   -0.0000 C   0  0  0  0  0  0  0  0  0  0  0  0
    3.8733    0.6674   -0.0000 C   0  0  0  0  0  0  0  0  0  0  0  0
    3.9090    2.1810   -0.0000 C   0  0  0  0  0  0  0  0  0  0  0  0
    0.0596    4.5288   -0.0000 C   0  0  0  0  0  0  0  0  0  0  0  0
   -1.2394    5.3272   -0.0000 N   0  0  0  0  0  0  0  0  0  0  0  0
    1.3825    5.2557   -0.0000 C   0  0  0  0  0  0  0  0  0  0  0  0
   -1.2037    6.8408   -0.0000 C   0  0  0  0  0  0  0  0  0  0  0  0
    1.4182    6.7812   -0.0000 O   0  0  0  0  0  0  0  0  0  0  0  0
    2.6457    4.4930   -0.0000 N   0  0  0  0  0  0  0  0  0  0  0  0
    0.1073    7.5678   -0.0000 O   0  0  0  0  0  0  0  0  0  0  0  0
   -2.5027    7.6393   -0.0000 C   0  0  0  0  0  0  0  0  0  0  0  0
    3.9567    5.2200   -0.0000 C   0  0  0  0  0  0  0  0  0  0  0  0
   -2.4670    9.1529   -0.0000 N   0  0  0  0  0  0  0  0  0  0  0  0
   -3.8137    6.9361   -0.0000 C   0  0  0  0  0  0  0  0  0  0  0  0
    5.2200    4.4453   -0.0000 C   0  0  0  0  0  0  0  0  0  0  0  0
    3.9925    6.7455   -0.0000 C   0  0  0  0  0  0  0  0  0  0  0  0
   -3.7660    9.9513   -0.0000 C   0  0  0  0  0  0  0  0  0  0  0  0
   -3.8852    5.4464   -0.0000 C   0  0  0  0  0  0  0  0  0  0  0  0
    5.1604    2.9675   -0.0000 O   0  0  0  0  0  0  0  0  0  0  0  0
    6.5309    5.1723   -0.0000 N   0  0  0  0  0  0  0  0  0  0  0  0
    5.3034    7.4724   -0.0000 S   0  0  0  0  0  0  0  0  0  0  0  0
   -5.1008    9.2601   -0.0000 O   0  0  0  0  0  0  0  0  0  0  0  0
   -3.7303   11.4649   -0.0000 C   0  0  0  0  0  0  0  0  0  0  0  0
   -2.5981    4.6718   -0.0000 C   0  0  0  0  0  0  0  0  0  0  0  0
   -5.1961    4.7552   -0.0000 C   0  0  0  0  0  0  0  0  0  0  0  0
    7.7942    4.3977   -0.0000 C   0  0  0  0  0  0  0  0  0  0  0  0
   -5.0174   12.2753   -0.0000 N   0  0  0  0  0  0  0  0  0  0  0  0
   -2.4074   12.1919   -0.0000 C   0  0  0  0  0  0  0  0  0  0  0  0
    9.1052    5.1246   -0.0000 C   0  0  0  0  0  0  0  0  0  0  0  0
    7.7346    2.9079   -0.0000 C   0  0  0  0  0  0  0  0  0  0  0  0
   -4.9816   13.7769   -0.0000 C   0  0  0  0  0  0  0  0  0  0  0  0
   -1.1441   11.4053   -0.0000 C   0  0  0  0  0  0  0  0  0  0  0  0
    9.1409    6.6382   -0.0000 O   0  0  0  0  0  0  0  0  0  0  0  0
   10.3804    4.3381   -0.0000 N   0  0  0  0  0  0  0  0  0  0  0  0
    6.3998    2.2167   -0.0000 C   0  0  0  0  0  0  0  0  0  0  0  0
    8.9979    2.1333   -0.0000 C   0  0  0  0  0  0  0  0  0  0  0  0
   -3.6588   14.5039   -0.0000 O   0  0  0  0  0  0  0  0  0  0  0  0
   -6.2687   14.5754   -0.0000 C   0  0  0  0  0  0  0  0  0  0  0  0
    0.1549   12.1323   -0.0000 C   0  0  0  0  0  0  0  0  0  0  0  0
   11.6913    5.0651   -0.0000 C   0  0  0  0  0  0  0  0  0  0  0  0
    6.3403    0.7270   -0.0000 C   0  0  0  0  0  0  0  0  0  0  0  0
   -6.2330   16.0771   -0.0000 N   0  0  0  0  0  0  0  0  0  0  0  0
   -7.6035   13.8842   -0.0000 C   0  0  0  0  0  0  0  0  0  0  0  0
    1.4182   11.3576   -0.0000 O   0  0  0  0  0  0  0  0  0  0  0  0
    0.1907   13.6578   -0.0000 O   0  0  0  0  0  0  0  0  0  0  0  0
   12.9546    4.2904   -0.0000 C   0  0  0  0  0  0  0  0  0  0  0  0
   11.7271    6.5905   -0.0000 C   0  0  0  0  0  0  0  0  0  0  0  0
   -7.5320   16.8875   -0.0000 C   0  0  0  0  0  0  0  0  0  0  0  0
   -7.6631   12.3826   -0.0000 S   0  0  0  0  0  0  0  0  0  0  0  0
   12.8950    2.8007   -0.0000 O   0  0  0  0  0  0  0  0  0  0  0  0
   14.2656    5.0174   -0.0000 N   0  0  0  0  0  0  0  0  0  0  0  0
   13.0380    7.3056   -0.0000 C   0  0  0  0  0  0  0  0  0  0  0  0
   -8.8668   16.1843   -0.0000 O   0  0  0  0  0  0  0  0  0  0  0  0
   -7.5082   18.4010   -0.0000 C   0  0  0  0  0  0  0  0  0  0  0  0
   15.5289    4.2308   -0.0000 C   0  0  0  0  0  0  0  0  0  0  0  0
   13.0738    8.8192   -0.0000 C   0  0  0  0  0  0  0  0  0  0  0  0
   -8.7953   19.1995   -0.0000 N   0  0  0  0  0  0  0  0  0  0  0  0
   -6.1853   19.1280   -0.0000 C   0  0  0  0  0  0  0  0  0  0  0  0
   16.8398    4.9578   -0.0000 C   0  0  0  0  0  0  0  0  0  0  0  0
   14.3848    9.5461   -0.0000 O   0  0  0  0  0  0  0  0  0  0  0  0
   11.7748    9.6296   -0.0000 N   0  0  0  0  0  0  0  0  0  0  0  0
   -8.7715   20.7131   -0.0000 C   0  0  0  0  0  0  0  0  0  0  0  0
   -4.9220   18.3534   -0.0000 C   0  0  0  0  0  0  0  0  0  0  0  0
   16.8756    6.4714   -0.0000 O   0  0  0  0  0  0  0  0  0  0  0  0
   18.1031    4.1712   -0.0000 N   0  0  0  0  0  0  0  0  0  0  0  0
   -7.4486   21.4401   -0.0000 O   0  0  0  0  0  0  0  0  0  0  0  0
  -10.0586   21.5235   -0.0000 C   0  0  0  0  0  0  0  0  0  0  0  0
   -3.5992   19.0804   -0.0000 C   0  0  0  0  0  0  0  0  0  0  0  0
   -4.9697   16.8637   -0.0000 C   0  0  0  0  0  0  0  0  0  0  0  0
   19.4141    4.8982   -0.0000 C   0  0  0  0  0  0  0  0  0  0  0  0
  -10.0228   23.0251   -0.0000 N   0  0  0  0  0  0  0  0  0  0  0  0
  -11.3934   20.8204   -0.0000 C   0  0  0  0  0  0  0  0  0  0  0  0
   -2.3240   18.3057   -0.0000 C   0  0  0  0  0  0  0  0  0  0  0  0
   -3.6945   16.0890   -0.0000 C   0  0  0  0  0  0  0  0  0  0  0  0
   20.6773    4.1236   -0.0000 C   0  0  0  0  0  0  0  0  0  0  0  0
   19.4498    6.4118   -0.0000 C   0  0  0  0  0  0  0  0  0  0  0  0
  -11.3100   23.8236   -0.0000 C   0  0  0  0  0  0  0  0  0  0  0  0
  -11.4411   19.3187   -0.0000 C   0  0  0  0  0  0  0  0  0  0  0  0
   -2.3836   16.8160   -0.0000 C   0  0  0  0  0  0  0  0  0  0  0  0
   20.6178    2.6338   -0.0000 O   0  0  0  0  0  0  0  0  0  0  0  0
   21.9883    4.8505   -0.0000 N   0  0  0  0  0  0  0  0  0  0  0  0
   20.7608    7.1268   -0.0000 O   0  0  0  0  0  0  0  0  0  0  0  0
   18.1508    7.2103   -0.0000 C   0  0  0  0  0  0  0  0  0  0  0  0
  -12.6328   23.1205   -0.0000 O   0  0  0  0  0  0  0  0  0  0  0  0
  -11.2861   25.3372   -0.0000 C   0  0  0  0  0  0  0  0  0  0  0  0
  -12.7759   18.6275   -0.0000 C   0  0  0  0  0  0  0  0  0  0  0  0
   23.2516    4.0640   -0.0000 C   0  0  0  0  0  0  0  0  0  0  0  0
  -12.5613   26.1476   -0.0000 N   0  0  0  0  0  0  0  0  0  0  0  0
   -9.9633   26.0642   -0.0000 C   0  0  0  0  0  0  0  0  0  0  0  0
  -12.8354   17.1378   -0.0000 N   0  0  0  0  0  0  0  0  0  0  0  0
   24.5625    4.7909   -0.0000 C   0  0  0  0  0  0  0  0  0  0  0  0
   -8.7119   25.3014   -0.0000 C   0  0  0  0  0  0  0  0  0  0  0  0
  -14.1702   16.4346   -0.0000 C   0  0  0  0  0  0  0  0  0  0  0  0
   24.5983    6.3164   -0.0000 O   0  0  0  0  0  0  0  0  0  0  0  0
   25.8258    4.0163   -0.0000 N   0  0  0  0  0  0  0  0  0  0  0  0
   -7.4129   26.0284   -0.0000 O   0  0  0  0  0  0  0  0  0  0  0  0
   -8.7596   23.7998   -0.0000 N   0  0  0  0  0  0  0  0  0  0  0  0
  -14.2179   14.9449   -0.0000 N   0  0  0  0  0  0  0  0  0  0  0  0
  -15.4574   17.2450   -0.0000 N   0  0  0  0  0  0  0  0  0  0  0  0
   27.1368    4.7433   -0.0000 C   0  0  0  0  0  0  0  0  0  0  0  0
   28.4001    3.9567   -0.0000 C   0  0  0  0  0  0  0  0  0  0  0  0
   27.1725    6.2568   -0.0000 C   0  0  0  0  0  0  0  0  0  0  0  0
   28.3405    2.4789   -0.0000 O   0  0  0  0  0  0  0  0  0  0  0  0
   29.7229    4.6956   -0.0000 N   0  0  0  0  0  0  0  0  0  0  0  0
   28.4835    6.9838   -0.0000 C   0  0  0  0  0  0  0  0  0  0  0  0
   30.9862    3.9209   -0.0000 C   0  0  0  0  0  0  0  0  0  0  0  0
   28.5192    8.5093   -0.0000 O   0  0  0  0  0  0  0  0  0  0  0  0
   29.7468    6.2211   -0.0000 O   0  0  0  0  0  0  0  0  0  0  0  0
   32.2972    4.6479   -0.0000 C   0  0  0  0  0  0  0  0  0  0  0  0
   30.9266    2.4312   -0.0000 C   0  0  0  0  0  0  0  0  0  0  0  0
   32.3329    6.1615   -0.0000 O   0  0  0  0  0  0  0  0  0  0  0  0
   33.5605    3.8733   -0.0000 N   0  0  0  0  0  0  0  0  0  0  0  0
   29.5918    1.7400   -0.0000 C   0  0  0  0  0  0  0  0  0  0  0  0
   32.1899    1.6566   -0.0000 C   0  0  0  0  0  0  0  0  0  0  0  0
   34.8714    4.6003   -0.0000 C   0  0  0  0  0  0  0  0  0  0  0  0
   36.1347    3.8375   -0.0000 C   0  0  0  0  0  0  0  0  0  0  0  0
   34.9072    6.1257   -0.0000 C   0  0  0  0  0  0  0  0  0  0  0  0
   36.0751    2.3478   -0.0000 O   0  0  0  0  0  0  0  0  0  0  0  0
   37.4456    4.5645   -0.0000 N   0  0  0  0  0  0  0  0  0  0  0  0
   36.2181    6.8527   -0.0000 C   0  0  0  0  0  0  0  0  0  0  0  0
   38.7089    3.7899   -0.0000 C   0  0  0  0  0  0  0  0  0  0  0  0
   36.2539    8.3663   -0.0000 C   0  0  0  0  0  0  0  0  0  0  0  0
   40.0318    4.5168   -0.0000 C   0  0  0  0  0  0  0  0  0  0  0  0
   38.6493    2.3001   -0.0000 C   0  0  0  0  0  0  0  0  0  0  0  0
   37.5648    9.0813   -0.0000 C   0  0  0  0  0  0  0  0  0  0  0  0
   40.0556    6.0423   -0.0000 O   0  0  0  0  0  0  0  0  0  0  0  0
   41.2951    3.7422   -0.0000 N   0  0  0  0  0  0  0  0  0  0  0  0
   37.6006   10.6068   -0.0000 N   0  0  0  0  0  0  0  0  0  0  0  0
   42.6060    4.4692   -0.0000 C   0  0  0  0  0  0  0  0  0  0  0  0
   43.8693    3.7064   -0.0000 C   0  0  0  0  0  0  0  0  0  0  0  0
   42.6418    5.9946   -0.0000 C   0  0  0  0  0  0  0  0  0  0  0  0
   43.8097    2.2167   -0.0000 O   0  0  0  0  0  0  0  0  0  0  0  0
   45.1803    4.4334   -0.0000 N   0  0  0  0  0  0  0  0  0  0  0  0
   43.9528    6.7216   -0.0000 S   0  0  0  0  0  0  0  0  0  0  0  0
   46.4436    3.6588   -0.0000 C   0  0  0  0  0  0  0  0  0  0  0  0
   47.7545    4.3857   -0.0000 C   0  0  0  0  0  0  0  0  0  0  0  0
   46.3840    2.1810   -0.0000 C   0  0  0  0  0  0  0  0  0  0  0  0
   47.7903    5.9112   -0.0000 O   0  0  0  0  0  0  0  0  0  0  0  0
   49.0178    3.6230   -0.0000 N   0  0  0  0  0  0  0  0  0  0  0  0
   47.6592    1.3944   -0.0000 C   0  0  0  0  0  0  0  0  0  0  0  0
   50.3407    4.3500   -0.0000 C   0  0  0  0  0  0  0  0  0  0  0  0
   47.5996   -0.0834   -0.0000 C   0  0  0  0  0  0  0  0  0  0  0  0
   51.6040    3.5753   -0.0000 C   0  0  0  0  0  0  0  0  0  0  0  0
   50.3764    5.8635   -0.0000 C   0  0  0  0  0  0  0  0  0  0  0  0
   48.8748   -0.8581   -0.0000 O   0  0  0  0  0  0  0  0  0  0  0  0
   46.2648   -0.7747   -0.0000 O   0  0  0  0  0  0  0  0  0  0  0  0
   51.5444    2.0856   -0.0000 O   0  0  0  0  0  0  0  0  0  0  0  0
   52.9149    4.2904   -0.0000 N   0  0  0  0  0  0  0  0  0  0  0  0
   51.6874    6.5905   -0.0000 C   0  0  0  0  0  0  0  0  0  0  0  0
   54.1782    3.5277   -0.0000 C   0  0  0  0  0  0  0  0  0  0  0  0
   51.8542    8.0922   -0.0000 C   0  0  0  0  0  0  0  0  0  0  0  0
   53.0222    5.9589   -0.0000 C   0  0  0  0  0  0  0  0  0  0  0  0
   55.4892    4.2427   -0.0000 C   0  0  0  0  0  0  0  0  0  0  0  0
   54.1186    2.0379   -0.0000 C   0  0  0  0  0  0  0  0  0  0  0  0
   53.3320    8.3901   -0.0000 C   0  0  0  0  0  0  0  0  0  0  0  0
   50.8770    9.2601   -0.0000 C   0  0  0  0  0  0  0  0  0  0  0  0
   54.0352    7.0672   -0.0000 N   0  0  0  0  0  0  0  0  0  0  0  0
   55.5249    5.7563   -0.0000 O   0  0  0  0  0  0  0  0  0  0  0  0
   56.7524    3.4681   -0.0000 N   0  0  0  0  0  0  0  0  0  0  0  0
   53.8207    9.8202   -0.0000 C   0  0  0  0  0  0  0  0  0  0  0  0
   51.3656   10.6783   -0.0000 C   0  0  0  0  0  0  0  0  0  0  0  0
   58.0634    4.1831   -0.0000 C   0  0  0  0  0  0  0  0  0  0  0  0
   52.8315   10.9644   -0.0000 C   0  0  0  0  0  0  0  0  0  0  0  0
   59.3267    3.4204   -0.0000 C   0  0  0  0  0  0  0  0  0  0  0  0
   58.0992    5.7086   -0.0000 C   0  0  0  0  0  0  0  0  0  0  0  0
   59.2790    1.9307   -0.0000 O   0  0  0  0  0  0  0  0  0  0  0  0
   60.6496    4.1593   -0.0000 N   0  0  0  0  0  0  0  0  0  0  0  0
   59.3982    6.4356   -0.0000 S   0  0  0  0  0  0  0  0  0  0  0  0
   61.9009    3.3727   -0.0000 C   0  0  0  0  0  0  0  0  0  0  0  0
   63.2238    4.1116   -0.0000 C   0  0  0  0  0  0  0  0  0  0  0  0
   61.8533    1.8949   -0.0000 C   0  0  0  0  0  0  0  0  0  0  0  0
   63.2476    5.6252   -0.0000 O   0  0  0  0  0  0  0  0  0  0  0  0
   64.4871    3.3370   -0.0000 O   0  0  0  0  0  0  0  0  0  0  0  0
   63.1165    1.1203   -0.0000 C   0  0  0  0  0  0  0  0  0  0  0  0
   63.0569   -0.3695   -0.0000 C   0  0  0  0  0  0  0  0  0  0  0  0
   64.3202   -1.1441   -0.0000 O   0  0  0  0  0  0  0  0  0  0  0  0
   61.7222   -1.0726   -0.0000 N   0  0  0  0  0  0  0  0  0  0  0  0
  1  2  1  0  0  0  0
  2  3  2  0  0  0  0
  2  4  1  0  0  0  0
  3  5  1  0  0  0  0
  3  6  1  0  0  0  0
  4  7  2  0  0  0  0
  5  8  2  0  0  0  0
  6  9  1  0  0  0  0
  9 10  1  6  0  0  0
  9 11  1  0  0  0  0
 10 12  1  0  0  0  0
 11 13  2  0  0  0  0
 11 14  1  0  0  0  0
 12 15  2  0  0  0  0
 12 16  1  0  0  0  0
 17 14  1  1  0  0  0
 16 18  1  6  0  0  0
 16 19  1  0  0  0  0
 17 20  1  0  0  0  0
 17 21  1  0  0  0  0
 18 22  1  0  0  0  0
 19 23  1  0  0  0  0
 20 24  2  0  0  0  0
 20 25  1  0  0  0  0
 21 26  1  0  0  0  0
 22 27  2  0  0  0  0
 22 28  1  0  0  0  0
 23 29  1  0  0  0  0
 23 30  1  0  0  0  0
 31 25  1  6  0  0  0
 28 32  1  1  0  0  0
 28 33  1  0  0  0  0
 31 34  1  0  0  0  0
 31 35  1  0  0  0  0
 32 36  1  0  0  0  0
 33 37  1  0  0  0  0
 34 38  2  0  0  0  0
 34 39  1  0  0  0  0
 35 40  1  0  0  0  0
 35 41  1  1  0  0  0
 36 42  2  0  0  0  0
 36 43  1  0  0  0  0
 37 44  1  0  0  0  0
 45 39  1  1  0  0  0
 40 46  1  0  0  0  0
 43 47  1  6  0  0  0
 43 48  1  0  0  0  0
 44 49  2  0  0  0  0
 44 50  1  0  0  0  0
 45 51  1  0  0  0  0
 45 52  1  0  0  0  0
 47 53  1  0  0  0  0
 48 54  1  0  0  0  0
 51 55  2  0  0  0  0
 51 56  1  0  0  0  0
 52 57  1  0  0  0  0
 53 58  2  0  0  0  0
 53 59  1  0  0  0  0
 56 60  1  0  0  0  0
 57 61  1  0  0  0  0
 59 62  1  1  0  0  0
 59 63  1  0  0  0  0
 60 64  1  0  0  0  0
 61 65  2  0  0  0  0
 61 66  1  0  0  0  0
 62 67  1  0  0  0  0
 63 68  1  0  0  0  0
 64 69  2  0  0  0  0
 64 70  1  0  0  0  0
 67 71  2  0  0  0  0
 67 72  1  0  0  0  0
 68 73  2  0  0  0  0
 68 74  1  0  0  0  0
 75 70  1  1  0  0  0
 72 76  1  6  0  0  0
 72 77  1  0  0  0  0
 73 78  1  0  0  0  0
 74 79  2  0  0  0  0
 75 80  1  0  0  0  0
 75 81  1  0  0  0  0
 76 82  1  0  0  0  0
 77 83  1  0  0  0  0
 78 84  2  0  0  0  0
 80 85  2  0  0  0  0
 80 86  1  0  0  0  0
 81 87  1  1  0  0  0
 81 88  1  0  0  0  0
 82 89  2  0  0  0  0
 82 90  1  0  0  0  0
 83 91  1  0  0  0  0
 86 92  1  0  0  0  0
 90 93  1  1  0  0  0
 90 94  1  0  0  0  0
 91 95  1  0  0  0  0
 92 96  1  0  0  0  0
 94 97  1  0  0  0  0
 95 98  1  0  0  0  0
 96 99  2  0  0  0  0
 96100  1  0  0  0  0
 97101  2  0  0  0  0
 97102  1  0  0  0  0
 98103  2  0  0  0  0
 98104  1  0  0  0  0
105100  1  1  0  0  0
105106  1  0  0  0  0
105107  1  0  0  0  0
106108  2  0  0  0  0
106109  1  0  0  0  0
107110  1  0  0  0  0
111109  1  6  0  0  0
110112  2  0  0  0  0
110113  1  0  0  0  0
111114  1  0  0  0  0
111115  1  0  0  0  0
114116  2  0  0  0  0
114117  1  0  0  0  0
115118  1  0  0  0  0
115119  1  0  0  0  0
120117  1  1  0  0  0
120121  1  0  0  0  0
120122  1  0  0  0  0
121123  2  0  0  0  0
121124  1  0  0  0  0
122125  1  0  0  0  0
126124  1  6  0  0  0
125127  1  0  0  0  0
126128  1  0  0  0  0
126129  1  0  0  0  0
127130  1  0  0  0  0
128131  2  0  0  0  0
128132  1  0  0  0  0
130133  1  0  0  0  0
134132  1  1  0  0  0
134135  1  0  0  0  0
134136  1  0  0  0  0
135137  2  0  0  0  0
135138  1  0  0  0  0
136139  1  0  0  0  0
140138  1  6  0  0  0
140141  1  0  0  0  0
140142  1  0  0  0  0
141143  2  0  0  0  0
141144  1  0  0  0  0
142145  1  0  0  0  0
146144  1  1  0  0  0
145147  1  0  0  0  0
146148  1  0  0  0  0
146149  1  0  0  0  0
147150  2  0  0  0  0
147151  1  0  0  0  0
148152  2  0  0  0  0
148153  1  0  0  0  0
149154  1  0  0  0  0
155153  1  6  0  0  0
154156  1  0  0  0  0
154157  2  0  0  0  0
155158  1  0  0  0  0
155159  1  0  0  0  0
156160  2  0  0  0  0
156161  1  0  0  0  0
157162  1  0  0  0  0
158163  2  0  0  0  0
158164  1  0  0  0  0
160165  1  0  0  0  0
161166  2  0  0  0  0
167164  1  1  0  0  0
165168  2  0  0  0  0
167169  1  0  0  0  0
167170  1  0  0  0  0
169171  2  0  0  0  0
169172  1  0  0  0  0
170173  1  0  0  0  0
174172  1  6  0  0  0
174175  1  0  0  0  0
174176  1  0  0  0  0
175177  2  0  0  0  0
175178  1  0  0  0  0
176179  1  0  0  0  0
179180  1  0  0  0  0
180181  2  0  0  0  0
180182  1  0  0  0  0
  7  8  1  0  0  0  0
 79 84  1  0  0  0  0
160162  1  0  0  0  0
166168  1  0  0  0  0
M  END
>  <MolRegNo>
1625084

>  <m>
=

>  <Value>
400

>  <Unit>
nM

>  <Type>
Ki

>  <pValue>
6.4

>  <Ligand Efficiency>
0

>  <Binding Efficiency>
2.41

>  <Surface Efficiency>
0

>  <Assay Index>
831551

>  <Assay Category>


>  <Assay Organism>
Homo sapiens

>  <Target ID>
56

>  <Target Name>
Androgen Receptor

>  <Target Organism>
Homo sapiens

>  <Target Description>
Target is a single protein chain

>  <Sequence Accession>
P10275

>  <Reference>
Medchemcomm 4 (1), 187-192 (2013)

>  <Pubmed ID>


>  <DOI>
10.1039/C2MD20182H

$$$$
1625083
Actelion Java MolfileCreator 1.0

182185  0  0  0  0  0  0  0  0999 V2000
    0.0000   -0.0000   -0.0000 Cl  0  0  0  0  0  0  0  0  0  0  0  0
    1.2794    0.7653   -0.0000 C   0  0  0  0  0  0  0  0  0  0  0  0
    1.2555    2.2599   -0.0000 C   0  0  0  0  0  0  0  0  0  0  0  0
    2.5947    0.0359   -0.0000 C   0  0  0  0  0  0  0  0  0  0  0  0
    2.5349    3.0371   -0.0000 C   0  0  0  0  0  0  0  0  0  0  0  0
   -0.0598    3.0132   -0.0000 C   0  0  0  0  0  0  0  0  0  0  0  0
    3.8860    0.8250   -0.0000 C   0  0  0  0  0  0  0  0  0  0  0  0
    3.8382    2.3316   -0.0000 C   0  0  0  0  0  0  0  0  0  0  0  0
   -0.0837    4.5198   -0.0000 C   0  0  0  0  0  0  0  0  0  0  0  0
   -1.3990    5.2850   -0.0000 N   0  0  0  0  0  0  0  0  0  0  0  0
    1.2077    5.2970   -0.0000 C   0  0  0  0  0  0  0  0  0  0  0  0
   -1.4229    6.7916   -0.0000 C   0  0  0  0  0  0  0  0  0  0  0  0
    1.1837    6.8155   -0.0000 O   0  0  0  0  0  0  0  0  0  0  0  0
    2.4871    4.5676   -0.0000 N   0  0  0  0  0  0  0  0  0  0  0  0
   -0.1435    7.5688   -0.0000 O   0  0  0  0  0  0  0  0  0  0  0  0
   -2.7501    7.5449   -0.0000 C   0  0  0  0  0  0  0  0  0  0  0  0
    3.7904    5.3448   -0.0000 C   0  0  0  0  0  0  0  0  0  0  0  0
   -2.7740    9.0515   -0.0000 N   0  0  0  0  0  0  0  0  0  0  0  0
   -4.0534    6.7916   -0.0000 C   0  0  0  0  0  0  0  0  0  0  0  0
    5.0818    4.6154   -0.0000 C   0  0  0  0  0  0  0  0  0  0  0  0
    3.7545    6.8634   -0.0000 C   0  0  0  0  0  0  0  0  0  0  0  0
   -4.1013    9.8168   -0.0000 C   0  0  0  0  0  0  0  0  0  0  0  0
   -4.0534    5.2970   -0.0000 C   0  0  0  0  0  0  0  0  0  0  0  0
    5.0698    3.1328   -0.0000 O   0  0  0  0  0  0  0  0  0  0  0  0
    6.3612    5.3926   -0.0000 N   0  0  0  0  0  0  0  0  0  0  0  0
    5.0339    7.6286   -0.0000 S   0  0  0  0  0  0  0  0  0  0  0  0
   -5.4046    9.0635   -0.0000 O   0  0  0  0  0  0  0  0  0  0  0  0
   -4.1252   11.3353   -0.0000 C   0  0  0  0  0  0  0  0  0  0  0  0
   -5.3568    4.5437   -0.0000 C   0  0  0  0  0  0  0  0  0  0  0  0
    7.6525    4.6633   -0.0000 C   0  0  0  0  0  0  0  0  0  0  0  0
   -5.4524   12.0886   -0.0000 N   0  0  0  0  0  0  0  0  0  0  0  0
   -2.8458   12.1125   -0.0000 C   0  0  0  0  0  0  0  0  0  0  0  0
   -5.3448    3.0491   -0.0000 N   0  0  0  0  0  0  0  0  0  0  0  0
    8.9319    5.4405   -0.0000 C   0  0  0  0  0  0  0  0  0  0  0  0
    7.6645    3.1686   -0.0000 C   0  0  0  0  0  0  0  0  0  0  0  0
   -1.5544   11.3951   -0.0000 C   0  0  0  0  0  0  0  0  0  0  0  0
   -6.6601    2.3077   -0.0000 C   0  0  0  0  0  0  0  0  0  0  0  0
    8.9200    6.9590   -0.0000 O   0  0  0  0  0  0  0  0  0  0  0  0
   10.2472    4.7111   -0.0000 N   0  0  0  0  0  0  0  0  0  0  0  0
    8.9558    2.4392   -0.0000 C   0  0  0  0  0  0  0  0  0  0  0  0
   -0.2750   12.1723   -0.0000 O   0  0  0  0  0  0  0  0  0  0  0  0
   -1.5544    9.9005   -0.0000 N   0  0  0  0  0  0  0  0  0  0  0  0
   -6.6481    0.8131   -0.0000 N   0  0  0  0  0  0  0  0  0  0  0  0
   -7.9873    3.0491   -0.0000 N   0  0  0  0  0  0  0  0  0  0  0  0
   11.5266    5.4883   -0.0000 C   0  0  0  0  0  0  0  0  0  0  0  0
    8.9678    0.9446   -0.0000 C   0  0  0  0  0  0  0  0  0  0  0  0
   12.8180    4.7589   -0.0000 C   0  0  0  0  0  0  0  0  0  0  0  0
   11.4907    7.0068   -0.0000 C   0  0  0  0  0  0  0  0  0  0  0  0
   10.2592    0.2152   -0.0000 O   0  0  0  0  0  0  0  0  0  0  0  0
    7.6645    0.1913   -0.0000 O   0  0  0  0  0  0  0  0  0  0  0  0
   12.8180    3.2643   -0.0000 O   0  0  0  0  0  0  0  0  0  0  0  0
   14.1093    5.5361   -0.0000 N   0  0  0  0  0  0  0  0  0  0  0  0
   12.7821    7.7840   -0.0000 C   0  0  0  0  0  0  0  0  0  0  0  0
   15.4127    4.7948   -0.0000 C   0  0  0  0  0  0  0  0  0  0  0  0
   14.0854    7.0547   -0.0000 C   0  0  0  0  0  0  0  0  0  0  0  0
   12.7582    9.3026   -0.0000 C   0  0  0  0  0  0  0  0  0  0  0  0
   16.6921    5.5720   -0.0000 C   0  0  0  0  0  0  0  0  0  0  0  0
   15.4127    3.3121   -0.0000 C   0  0  0  0  0  0  0  0  0  0  0  0
   16.6681    7.0905   -0.0000 O   0  0  0  0  0  0  0  0  0  0  0  0
   17.9954    4.8426   -0.0000 N   0  0  0  0  0  0  0  0  0  0  0  0
   16.7040    2.5827   -0.0000 C   0  0  0  0  0  0  0  0  0  0  0  0
   19.2748    5.6198   -0.0000 C   0  0  0  0  0  0  0  0  0  0  0  0
   17.9834    3.3599   -0.0000 C   0  0  0  0  0  0  0  0  0  0  0  0
   16.7040    1.1001   -0.0000 C   0  0  0  0  0  0  0  0  0  0  0  0
   20.5781    4.8904   -0.0000 C   0  0  0  0  0  0  0  0  0  0  0  0
   19.2509    7.1384   -0.0000 C   0  0  0  0  0  0  0  0  0  0  0  0
   19.2867    2.6425   -0.0000 C   0  0  0  0  0  0  0  0  0  0  0  0
   17.9954    0.3587   -0.0000 C   0  0  0  0  0  0  0  0  0  0  0  0
   20.5781    3.4078   -0.0000 O   0  0  0  0  0  0  0  0  0  0  0  0
   21.8695    5.6676   -0.0000 N   0  0  0  0  0  0  0  0  0  0  0  0
   20.5422    7.9036   -0.0000 S   0  0  0  0  0  0  0  0  0  0  0  0
   19.2748    1.1479   -0.0000 C   0  0  0  0  0  0  0  0  0  0  0  0
   23.1608    4.9383   -0.0000 C   0  0  0  0  0  0  0  0  0  0  0  0
   24.4642    5.7155   -0.0000 C   0  0  0  0  0  0  0  0  0  0  0  0
   23.1848    3.4436   -0.0000 C   0  0  0  0  0  0  0  0  0  0  0  0
   24.4163    7.2340   -0.0000 O   0  0  0  0  0  0  0  0  0  0  0  0
   25.7436    4.9861   -0.0000 N   0  0  0  0  0  0  0  0  0  0  0  0
   21.8695    2.7023   -0.0000 C   0  0  0  0  0  0  0  0  0  0  0  0
   24.4761    2.7143   -0.0000 C   0  0  0  0  0  0  0  0  0  0  0  0
   27.0349    5.7633   -0.0000 C   0  0  0  0  0  0  0  0  0  0  0  0
   21.8575    1.2077   -0.0000 C   0  0  0  0  0  0  0  0  0  0  0  0
   28.3143    5.0459   -0.0000 C   0  0  0  0  0  0  0  0  0  0  0  0
   27.0110    7.2819   -0.0000 C   0  0  0  0  0  0  0  0  0  0  0  0
   28.3143    3.5512   -0.0000 O   0  0  0  0  0  0  0  0  0  0  0  0
   29.6057    5.8231   -0.0000 N   0  0  0  0  0  0  0  0  0  0  0  0
   28.2785    8.0591   -0.0000 C   0  0  0  0  0  0  0  0  0  0  0  0
   30.8971    5.0937   -0.0000 C   0  0  0  0  0  0  0  0  0  0  0  0
   28.2545    9.5776   -0.0000 C   0  0  0  0  0  0  0  0  0  0  0  0
   32.1765    5.8709   -0.0000 C   0  0  0  0  0  0  0  0  0  0  0  0
   29.5459   10.3548   -0.0000 O   0  0  0  0  0  0  0  0  0  0  0  0
   26.9393   10.3309   -0.0000 N   0  0  0  0  0  0  0  0  0  0  0  0
   32.1526    7.3895   -0.0000 O   0  0  0  0  0  0  0  0  0  0  0  0
   33.4798    5.1535   -0.0000 N   0  0  0  0  0  0  0  0  0  0  0  0
   34.7592    5.9307   -0.0000 C   0  0  0  0  0  0  0  0  0  0  0  0
   36.0625    5.2013   -0.0000 C   0  0  0  0  0  0  0  0  0  0  0  0
   34.7472    7.4493   -0.0000 C   0  0  0  0  0  0  0  0  0  0  0  0
   36.0625    3.7186   -0.0000 O   0  0  0  0  0  0  0  0  0  0  0  0
   37.3539    5.9785   -0.0000 N   0  0  0  0  0  0  0  0  0  0  0  0
   36.0266    8.2265   -0.0000 O   0  0  0  0  0  0  0  0  0  0  0  0
   33.4200    8.2025   -0.0000 C   0  0  0  0  0  0  0  0  0  0  0  0
   38.6452    5.2611   -0.0000 C   0  0  0  0  0  0  0  0  0  0  0  0
   39.9366    6.0383   -0.0000 C   0  0  0  0  0  0  0  0  0  0  0  0
   39.9127    7.5569   -0.0000 O   0  0  0  0  0  0  0  0  0  0  0  0
   41.2280    5.3089   -0.0000 N   0  0  0  0  0  0  0  0  0  0  0  0
   42.5193    6.0861   -0.0000 C   0  0  0  0  0  0  0  0  0  0  0  0
   43.8226    5.3568   -0.0000 C   0  0  0  0  0  0  0  0  0  0  0  0
   42.4954    7.6047   -0.0000 C   0  0  0  0  0  0  0  0  0  0  0  0
   43.8226    3.8741   -0.0000 O   0  0  0  0  0  0  0  0  0  0  0  0
   45.1021    6.1340   -0.0000 N   0  0  0  0  0  0  0  0  0  0  0  0
   43.7748    8.3819   -0.0000 C   0  0  0  0  0  0  0  0  0  0  0  0
   46.3934    5.4166   -0.0000 C   0  0  0  0  0  0  0  0  0  0  0  0
   43.7509    9.9005   -0.0000 O   0  0  0  0  0  0  0  0  0  0  0  0
   45.0662    7.6406   -0.0000 O   0  0  0  0  0  0  0  0  0  0  0  0
   47.6848    6.1938   -0.0000 C   0  0  0  0  0  0  0  0  0  0  0  0
   46.4054    3.9219   -0.0000 C   0  0  0  0  0  0  0  0  0  0  0  0
   47.6489    7.7123   -0.0000 O   0  0  0  0  0  0  0  0  0  0  0  0
   48.9761    5.4644   -0.0000 N   0  0  0  0  0  0  0  0  0  0  0  0
   47.6967    3.1925   -0.0000 C   0  0  0  0  0  0  0  0  0  0  0  0
   45.1021    3.1686   -0.0000 C   0  0  0  0  0  0  0  0  0  0  0  0
   50.2555    6.2416   -0.0000 C   0  0  0  0  0  0  0  0  0  0  0  0
   51.5469    5.5242   -0.0000 C   0  0  0  0  0  0  0  0  0  0  0  0
   50.2316    7.7601   -0.0000 C   0  0  0  0  0  0  0  0  0  0  0  0
   51.5469    4.0295   -0.0000 O   0  0  0  0  0  0  0  0  0  0  0  0
   52.8383    6.3014   -0.0000 N   0  0  0  0  0  0  0  0  0  0  0  0
   51.5110    8.5373   -0.0000 C   0  0  0  0  0  0  0  0  0  0  0  0
   54.1416    5.5720   -0.0000 C   0  0  0  0  0  0  0  0  0  0  0  0
   51.4871   10.0559   -0.0000 C   0  0  0  0  0  0  0  0  0  0  0  0
   55.4210    6.3492   -0.0000 C   0  0  0  0  0  0  0  0  0  0  0  0
   54.1416    4.0893   -0.0000 C   0  0  0  0  0  0  0  0  0  0  0  0
   52.7785   10.8211   -0.0000 C   0  0  0  0  0  0  0  0  0  0  0  0
   55.3851    7.8677   -0.0000 O   0  0  0  0  0  0  0  0  0  0  0  0
   56.7124    5.6318   -0.0000 N   0  0  0  0  0  0  0  0  0  0  0  0
   52.7546   12.3397   -0.0000 N   0  0  0  0  0  0  0  0  0  0  0  0
   58.0037    6.4090   -0.0000 C   0  0  0  0  0  0  0  0  0  0  0  0
   59.3070    5.6916   -0.0000 C   0  0  0  0  0  0  0  0  0  0  0  0
   57.9798    7.9275   -0.0000 C   0  0  0  0  0  0  0  0  0  0  0  0
   59.3070    4.1969   -0.0000 O   0  0  0  0  0  0  0  0  0  0  0  0
   60.5865    6.4688   -0.0000 N   0  0  0  0  0  0  0  0  0  0  0  0
   59.2592    8.7047   -0.0000 S   0  0  0  0  0  0  0  0  0  0  0  0
   61.8898    5.7513   -0.0000 C   0  0  0  0  0  0  0  0  0  0  0  0
   63.1931    6.5286   -0.0000 C   0  0  0  0  0  0  0  0  0  0  0  0
   61.8898    4.2567   -0.0000 C   0  0  0  0  0  0  0  0  0  0  0  0
   63.1572    8.0471   -0.0000 O   0  0  0  0  0  0  0  0  0  0  0  0
   64.4725    5.7992   -0.0000 N   0  0  0  0  0  0  0  0  0  0  0  0
   63.2051    3.5393   -0.0000 C   0  0  0  0  0  0  0  0  0  0  0  0
   65.7639    6.5764   -0.0000 C   0  0  0  0  0  0  0  0  0  0  0  0
   63.2051    2.0447   -0.0000 C   0  0  0  0  0  0  0  0  0  0  0  0
   67.0672    5.8590   -0.0000 C   0  0  0  0  0  0  0  0  0  0  0  0
   65.7399    8.0949   -0.0000 C   0  0  0  0  0  0  0  0  0  0  0  0
   64.5084    1.3272   -0.0000 O   0  0  0  0  0  0  0  0  0  0  0  0
   61.8898    1.2914   -0.0000 O   0  0  0  0  0  0  0  0  0  0  0  0
   67.0672    4.3643   -0.0000 O   0  0  0  0  0  0  0  0  0  0  0  0
   68.3466    6.6362   -0.0000 N   0  0  0  0  0  0  0  0  0  0  0  0
   67.0194    8.8721   -0.0000 C   0  0  0  0  0  0  0  0  0  0  0  0
   69.6499    5.9187   -0.0000 C   0  0  0  0  0  0  0  0  0  0  0  0
   67.1389   10.3787   -0.0000 C   0  0  0  0  0  0  0  0  0  0  0  0
   68.3825    8.2862   -0.0000 C   0  0  0  0  0  0  0  0  0  0  0  0
   70.9293    6.6840   -0.0000 C   0  0  0  0  0  0  0  0  0  0  0  0
   69.6499    4.4241   -0.0000 C   0  0  0  0  0  0  0  0  0  0  0  0
   68.6096   10.7135   -0.0000 C   0  0  0  0  0  0  0  0  0  0  0  0
   66.1226   11.4907   -0.0000 C   0  0  0  0  0  0  0  0  0  0  0  0
   69.3629    9.4222   -0.0000 N   0  0  0  0  0  0  0  0  0  0  0  0
   70.8934    8.2025   -0.0000 O   0  0  0  0  0  0  0  0  0  0  0  0
   72.2326    5.9666   -0.0000 N   0  0  0  0  0  0  0  0  0  0  0  0
   69.0521   12.1603   -0.0000 C   0  0  0  0  0  0  0  0  0  0  0  0
   66.5411   12.9375   -0.0000 C   0  0  0  0  0  0  0  0  0  0  0  0
   73.5120    6.7438   -0.0000 C   0  0  0  0  0  0  0  0  0  0  0  0
   68.0118   13.2843   -0.0000 C   0  0  0  0  0  0  0  0  0  0  0  0
   74.8154    6.0264   -0.0000 C   0  0  0  0  0  0  0  0  0  0  0  0
   73.5001    8.2743   -0.0000 C   0  0  0  0  0  0  0  0  0  0  0  0
   74.8154    4.5317   -0.0000 O   0  0  0  0  0  0  0  0  0  0  0  0
   76.1067    6.8036   -0.0000 N   0  0  0  0  0  0  0  0  0  0  0  0
   74.7675    9.0515   -0.0000 S   0  0  0  0  0  0  0  0  0  0  0  0
   77.3861    6.0742   -0.0000 C   0  0  0  0  0  0  0  0  0  0  0  0
   78.6775    6.8514   -0.0000 C   0  0  0  0  0  0  0  0  0  0  0  0
   77.3981    4.5915   -0.0000 C   0  0  0  0  0  0  0  0  0  0  0  0
   78.6416    8.3699   -0.0000 O   0  0  0  0  0  0  0  0  0  0  0  0
   79.9689    6.1220   -0.0000 O   0  0  0  0  0  0  0  0  0  0  0  0
   78.7014    3.8621   -0.0000 C   0  0  0  0  0  0  0  0  0  0  0  0
   78.7014    2.3675   -0.0000 C   0  0  0  0  0  0  0  0  0  0  0  0
   80.0047    1.6501   -0.0000 O   0  0  0  0  0  0  0  0  0  0  0  0
   77.3981    1.6142   -0.0000 N   0  0  0  0  0  0  0  0  0  0  0  0
  1  2  1  0  0  0  0
  2  3  2  0  0  0  0
  2  4  1  0  0  0  0
  3  5  1  0  0  0  0
  3  6  1  0  0  0  0
  4  7  2  0  0  0  0
  5  8  2  0  0  0  0
  6  9  1  0  0  0  0
  9 10  1  6  0  0  0
  9 11  1  0  0  0  0
 10 12  1  0  0  0  0
 11 13  2  0  0  0  0
 11 14  1  0  0  0  0
 12 15  2  0  0  0  0
 12 16  1  0  0  0  0
 17 14  1  1  0  0  0
 16 18  1  6  0  0  0
 16 19  1  0  0  0  0
 17 20  1  0  0  0  0
 17 21  1  0  0  0  0
 18 22  1  0  0  0  0
 19 23  1  0  0  0  0
 20 24  2  0  0  0  0
 20 25  1  0  0  0  0
 21 26  1  0  0  0  0
 22 27  2  0  0  0  0
 22 28  1  0  0  0  0
 23 29  1  0  0  0  0
 30 25  1  6  0  0  0
 28 31  1  1  0  0  0
 28 32  1  0  0  0  0
 29 33  1  0  0  0  0
 30 34  1  0  0  0  0
 30 35  1  0  0  0  0
 32 36  1  0  0  0  0
 33 37  1  0  0  0  0
 34 38  2  0  0  0  0
 34 39  1  0  0  0  0
 35 40  1  0  0  0  0
 36 41  2  0  0  0  0
 36 42  1  0  0  0  0
 37 43  2  0  0  0  0
 37 44  1  0  0  0  0
 45 39  1  1  0  0  0
 40 46  1  0  0  0  0
 45 47  1  0  0  0  0
 45 48  1  0  0  0  0
 46 49  2  0  0  0  0
 46 50  1  0  0  0  0
 47 51  2  0  0  0  0
 47 52  1  0  0  0  0
 48 53  1  0  0  0  0
 54 52  1  6  0  0  0
 53 55  1  0  0  0  0
 53 56  1  0  0  0  0
 54 57  1  0  0  0  0
 54 58  1  0  0  0  0
 57 59  2  0  0  0  0
 57 60  1  0  0  0  0
 58 61  1  0  0  0  0
 62 60  1  1  0  0  0
 61 63  2  0  0  0  0
 61 64  1  0  0  0  0
 62 65  1  0  0  0  0
 62 66  1  0  0  0  0
 63 67  1  0  0  0  0
 64 68  2  0  0  0  0
 65 69  2  0  0  0  0
 65 70  1  0  0  0  0
 66 71  1  0  0  0  0
 67 72  2  0  0  0  0
 73 70  1  6  0  0  0
 73 74  1  0  0  0  0
 73 75  1  0  0  0  0
 74 76  2  0  0  0  0
 74 77  1  0  0  0  0
 75 78  1  0  0  0  0
 75 79  1  1  0  0  0
 80 77  1  1  0  0  0
 78 81  1  0  0  0  0
 80 82  1  0  0  0  0
 80 83  1  0  0  0  0
 82 84  2  0  0  0  0
 82 85  1  0  0  0  0
 83 86  1  0  0  0  0
 85 87  1  0  0  0  0
 86 88  1  0  0  0  0
 87 89  1  0  0  0  0
 88 90  2  0  0  0  0
 88 91  1  0  0  0  0
 89 92  2  0  0  0  0
 89 93  1  0  0  0  0
 94 93  1  1  0  0  0
 94 95  1  0  0  0  0
 94 96  1  0  0  0  0
 95 97  2  0  0  0  0
 95 98  1  0  0  0  0
 96 99  1  1  0  0  0
 96100  1  0  0  0  0
 98101  1  0  0  0  0
101102  1  0  0  0  0
102103  2  0  0  0  0
102104  1  0  0  0  0
105104  1  1  0  0  0
105106  1  0  0  0  0
105107  1  0  0  0  0
106108  2  0  0  0  0
106109  1  0  0  0  0
107110  1  0  0  0  0
111109  1  6  0  0  0
110112  2  0  0  0  0
110113  1  0  0  0  0
111114  1  0  0  0  0
111115  1  0  0  0  0
114116  2  0  0  0  0
114117  1  0  0  0  0
115118  1  0  0  0  0
115119  1  0  0  0  0
120117  1  1  0  0  0
120121  1  0  0  0  0
120122  1  0  0  0  0
121123  2  0  0  0  0
121124  1  0  0  0  0
122125  1  0  0  0  0
126124  1  6  0  0  0
125127  1  0  0  0  0
126128  1  0  0  0  0
126129  1  0  0  0  0
127130  1  0  0  0  0
128131  2  0  0  0  0
128132  1  0  0  0  0
130133  1  0  0  0  0
134132  1  1  0  0  0
134135  1  0  0  0  0
134136  1  0  0  0  0
135137  2  0  0  0  0
135138  1  0  0  0  0
136139  1  0  0  0  0
140138  1  6  0  0  0
140141  1  0  0  0  0
140142  1  0  0  0  0
141143  2  0  0  0  0
141144  1  0  0  0  0
142145  1  0  0  0  0
146144  1  1  0  0  0
145147  1  0  0  0  0
146148  1  0  0  0  0
146149  1  0  0  0  0
147150  2  0  0  0  0
147151  1  0  0  0  0
148152  2  0  0  0  0
148153  1  0  0  0  0
149154  1  0  0  0  0
155153  1  6  0  0  0
154156  1  0  0  0  0
154157  2  0  0  0  0
155158  1  0  0  0  0
155159  1  0  0  0  0
156160  2  0  0  0  0
156161  1  0  0  0  0
157162  1  0  0  0  0
158163  2  0  0  0  0
158164  1  0  0  0  0
160165  1  0  0  0  0
161166  2  0  0  0  0
167164  1  1  0  0  0
165168  2  0  0  0  0
167169  1  0  0  0  0
167170  1  0  0  0  0
169171  2  0  0  0  0
169172  1  0  0  0  0
170173  1  0  0  0  0
174172  1  6  0  0  0
174175  1  0  0  0  0
174176  1  0  0  0  0
175177  2  0  0  0  0
175178  1  0  0  0  0
176179  1  0  0  0  0
179180  1  0  0  0  0
180181  2  0  0  0  0
180182  1  0  0  0  0
  7  8  1  0  0  0  0
 68 72  1  0  0  0  0
160162  1  0  0  0  0
166168  1  0  0  0  0
M  END
>  <MolRegNo>
1625083

>  <m>
=

>  <Value>
2200

>  <Unit>
nM

>  <Type>
Ki

>  <pValue>
5.66

>  <Ligand Efficiency>
0

>  <Binding Efficiency>
2.13

>  <Surface Efficiency>
0

>  <Assay Index>
831551

>  <Assay Category>


>  <Assay Organism>
Homo sapiens

>  <Target ID>
56

>  <Target Name>
Androgen Receptor

>  <Target Organism>
Homo sapiens

>  <Target Description>
Target is a single protein chain

>  <Sequence Accession>
P10275

>  <Reference>
Medchemcomm 4 (1), 187-192 (2013)

>  <Pubmed ID>


>  <DOI>
10.1039/C2MD20182H

$$$$
1625082
Actelion Java MolfileCreator 1.0

182185  0  0  0  0  0  0  0  0999 V2000
    0.0000   -0.0000   -0.0000 Cl  0  0  0  0  0  0  0  0  0  0  0  0
   -1.2867    0.7982   -0.0000 C   0  0  0  0  0  0  0  0  0  0  0  0
   -1.2629    2.3113   -0.0000 C   0  0  0  0  0  0  0  0  0  0  0  0
   -2.6210    0.0953   -0.0000 C   0  0  0  0  0  0  0  0  0  0  0  0
   -2.5495    3.1095   -0.0000 C   0  0  0  0  0  0  0  0  0  0  0  0
   -3.9196    0.8935   -0.0000 C   0  0  0  0  0  0  0  0  0  0  0  0
   -3.8839    2.4066   -0.0000 C   0  0  0  0  0  0  0  0  0  0  0  0
   -5.1825    3.2167   -0.0000 C   0  0  0  0  0  0  0  0  0  0  0  0
   -5.1467    4.7178   -0.0000 C   0  0  0  0  0  0  0  0  0  0  0  0
   -6.4453    5.5280   -0.0000 N   0  0  0  0  0  0  0  0  0  0  0  0
   -3.8362    5.4446   -0.0000 C   0  0  0  0  0  0  0  0  0  0  0  0
   -6.4096    7.0410   -0.0000 C   0  0  0  0  0  0  0  0  0  0  0  0
   -3.8005    6.9576   -0.0000 O   0  0  0  0  0  0  0  0  0  0  0  0
   -2.5734    4.6702   -0.0000 N   0  0  0  0  0  0  0  0  0  0  0  0
   -5.0991    7.7677   -0.0000 O   0  0  0  0  0  0  0  0  0  0  0  0
   -7.7082    7.8392   -0.0000 C   0  0  0  0  0  0  0  0  0  0  0  0
   -1.2629    5.3969   -0.0000 C   0  0  0  0  0  0  0  0  0  0  0  0
   -7.6724    9.3523   -0.0000 N   0  0  0  0  0  0  0  0  0  0  0  0
   -9.0306    7.1363   -0.0000 C   0  0  0  0  0  0  0  0  0  0  0  0
    0.0000    4.6225   -0.0000 C   0  0  0  0  0  0  0  0  0  0  0  0
   -1.2271    6.9099   -0.0000 C   0  0  0  0  0  0  0  0  0  0  0  0
   -8.9710   10.1505   -0.0000 C   0  0  0  0  0  0  0  0  0  0  0  0
   -9.1021    5.6471   -0.0000 C   0  0  0  0  0  0  0  0  0  0  0  0
   -0.0596    3.1452   -0.0000 O   0  0  0  0  0  0  0  0  0  0  0  0
    1.3105    5.3492   -0.0000 N   0  0  0  0  0  0  0  0  0  0  0  0
    0.0834    7.6367   -0.0000 S   0  0  0  0  0  0  0  0  0  0  0  0
  -10.3053    9.4476   -0.0000 O   0  0  0  0  0  0  0  0  0  0  0  0
   -8.9234   11.6635   -0.0000 C   0  0  0  0  0  0  0  0  0  0  0  0
   -7.8154    4.8608   -0.0000 C   0  0  0  0  0  0  0  0  0  0  0  0
  -10.4245    4.9442   -0.0000 C   0  0  0  0  0  0  0  0  0  0  0  0
    2.5734    4.5749   -0.0000 C   0  0  0  0  0  0  0  0  0  0  0  0
  -10.2219   12.4736   -0.0000 N   0  0  0  0  0  0  0  0  0  0  0  0
   -7.6009   12.3902   -0.0000 C   0  0  0  0  0  0  0  0  0  0  0  0
    3.8839    5.3016   -0.0000 C   0  0  0  0  0  0  0  0  0  0  0  0
    2.5138    3.0856   -0.0000 C   0  0  0  0  0  0  0  0  0  0  0  0
  -10.1862   13.9748   -0.0000 C   0  0  0  0  0  0  0  0  0  0  0  0
   -6.3381   11.6159   -0.0000 C   0  0  0  0  0  0  0  0  0  0  0  0
    3.9196    6.8146   -0.0000 O   0  0  0  0  0  0  0  0  0  0  0  0
    5.1467    4.5272   -0.0000 N   0  0  0  0  0  0  0  0  0  0  0  0
    1.1795    2.3827   -0.0000 C   0  0  0  0  0  0  0  0  0  0  0  0
    3.7766    2.3113   -0.0000 C   0  0  0  0  0  0  0  0  0  0  0  0
   -8.8638   14.7015   -0.0000 O   0  0  0  0  0  0  0  0  0  0  0  0
  -11.4848   14.7849   -0.0000 C   0  0  0  0  0  0  0  0  0  0  0  0
   -5.0395   12.3426   -0.0000 C   0  0  0  0  0  0  0  0  0  0  0  0
    6.4572    5.2539   -0.0000 C   0  0  0  0  0  0  0  0  0  0  0  0
    1.1199    0.8935   -0.0000 C   0  0  0  0  0  0  0  0  0  0  0  0
  -11.4491   16.2860   -0.0000 N   0  0  0  0  0  0  0  0  0  0  0  0
  -12.8072   14.0820   -0.0000 C   0  0  0  0  0  0  0  0  0  0  0  0
   -3.7766   11.5682   -0.0000 O   0  0  0  0  0  0  0  0  0  0  0  0
   -5.0038   13.8675   -0.0000 O   0  0  0  0  0  0  0  0  0  0  0  0
    7.7201    4.4795   -0.0000 C   0  0  0  0  0  0  0  0  0  0  0  0
    6.4930    6.7670   -0.0000 C   0  0  0  0  0  0  0  0  0  0  0  0
  -12.7357   17.0962   -0.0000 C   0  0  0  0  0  0  0  0  0  0  0  0
  -12.8787   12.5809   -0.0000 S   0  0  0  0  0  0  0  0  0  0  0  0
    7.6605    2.9903   -0.0000 O   0  0  0  0  0  0  0  0  0  0  0  0
    9.0306    5.2063   -0.0000 N   0  0  0  0  0  0  0  0  0  0  0  0
    7.8035    7.4937   -0.0000 C   0  0  0  0  0  0  0  0  0  0  0  0
  -14.0701   16.3932   -0.0000 O   0  0  0  0  0  0  0  0  0  0  0  0
  -12.7238   18.6092   -0.0000 C   0  0  0  0  0  0  0  0  0  0  0  0
   10.2934    4.4319   -0.0000 C   0  0  0  0  0  0  0  0  0  0  0  0
    7.8392    9.0068   -0.0000 C   0  0  0  0  0  0  0  0  0  0  0  0
  -13.9986   19.4074   -0.0000 N   0  0  0  0  0  0  0  0  0  0  0  0
  -11.4014   19.3359   -0.0000 C   0  0  0  0  0  0  0  0  0  0  0  0
   11.6039    5.1586   -0.0000 C   0  0  0  0  0  0  0  0  0  0  0  0
    9.1497    9.7335   -0.0000 O   0  0  0  0  0  0  0  0  0  0  0  0
    6.5406    9.8169   -0.0000 N   0  0  0  0  0  0  0  0  0  0  0  0
  -13.9748   20.9204   -0.0000 C   0  0  0  0  0  0  0  0  0  0  0  0
  -10.1266   18.5615   -0.0000 C   0  0  0  0  0  0  0  0  0  0  0  0
   11.6397    6.6717   -0.0000 O   0  0  0  0  0  0  0  0  0  0  0  0
   12.8668    4.3842   -0.0000 N   0  0  0  0  0  0  0  0  0  0  0  0
  -12.6523   21.6472   -0.0000 O   0  0  0  0  0  0  0  0  0  0  0  0
  -15.2734   21.7306   -0.0000 C   0  0  0  0  0  0  0  0  0  0  0  0
  -10.1743   17.0723   -0.0000 C   0  0  0  0  0  0  0  0  0  0  0  0
   -8.8042   19.2883   -0.0000 C   0  0  0  0  0  0  0  0  0  0  0  0
   14.1773    5.1110   -0.0000 C   0  0  0  0  0  0  0  0  0  0  0  0
  -15.2376   23.2317   -0.0000 N   0  0  0  0  0  0  0  0  0  0  0  0
  -16.5958   21.0277   -0.0000 C   0  0  0  0  0  0  0  0  0  0  0  0
   -8.8995   16.2979   -0.0000 C   0  0  0  0  0  0  0  0  0  0  0  0
   -7.5295   18.5139   -0.0000 C   0  0  0  0  0  0  0  0  0  0  0  0
   15.4401    4.3366   -0.0000 C   0  0  0  0  0  0  0  0  0  0  0  0
   14.2130    6.6240   -0.0000 C   0  0  0  0  0  0  0  0  0  0  0  0
  -16.5124   24.0299   -0.0000 C   0  0  0  0  0  0  0  0  0  0  0  0
  -16.6434   19.5265   -0.0000 C   0  0  0  0  0  0  0  0  0  0  0  0
   -7.5890   17.0247   -0.0000 C   0  0  0  0  0  0  0  0  0  0  0  0
   15.3806    2.8474   -0.0000 O   0  0  0  0  0  0  0  0  0  0  0  0
   16.7507    5.0633   -0.0000 N   0  0  0  0  0  0  0  0  0  0  0  0
   15.5235    7.3507   -0.0000 O   0  0  0  0  0  0  0  0  0  0  0  0
   12.9144    7.4341   -0.0000 C   0  0  0  0  0  0  0  0  0  0  0  0
  -17.8467   23.3270   -0.0000 O   0  0  0  0  0  0  0  0  0  0  0  0
  -16.5005   25.5430   -0.0000 C   0  0  0  0  0  0  0  0  0  0  0  0
  -17.9778   18.8236   -0.0000 C   0  0  0  0  0  0  0  0  0  0  0  0
   18.0135    4.2889   -0.0000 C   0  0  0  0  0  0  0  0  0  0  0  0
  -17.7633   26.3412   -0.0000 N   0  0  0  0  0  0  0  0  0  0  0  0
  -15.1780   26.2697   -0.0000 C   0  0  0  0  0  0  0  0  0  0  0  0
  -18.0254   17.3344   -0.0000 N   0  0  0  0  0  0  0  0  0  0  0  0
   19.3240    5.0157   -0.0000 C   0  0  0  0  0  0  0  0  0  0  0  0
  -13.9271   25.5072   -0.0000 C   0  0  0  0  0  0  0  0  0  0  0  0
  -19.3598   16.6315   -0.0000 C   0  0  0  0  0  0  0  0  0  0  0  0
   19.3598    6.5287   -0.0000 O   0  0  0  0  0  0  0  0  0  0  0  0
   20.5869    4.2413   -0.0000 N   0  0  0  0  0  0  0  0  0  0  0  0
  -12.6285   26.2340   -0.0000 O   0  0  0  0  0  0  0  0  0  0  0  0
  -13.9748   24.0180   -0.0000 N   0  0  0  0  0  0  0  0  0  0  0  0
  -19.4074   15.1423   -0.0000 N   0  0  0  0  0  0  0  0  0  0  0  0
  -20.6464   17.4297   -0.0000 N   0  0  0  0  0  0  0  0  0  0  0  0
   21.8974    4.9680   -0.0000 C   0  0  0  0  0  0  0  0  0  0  0  0
   23.1602    4.1936   -0.0000 C   0  0  0  0  0  0  0  0  0  0  0  0
   21.9331    6.4810   -0.0000 C   0  0  0  0  0  0  0  0  0  0  0  0
   23.1007    2.7163   -0.0000 O   0  0  0  0  0  0  0  0  0  0  0  0
   24.4826    4.9204   -0.0000 N   0  0  0  0  0  0  0  0  0  0  0  0
   23.2436    7.2078   -0.0000 C   0  0  0  0  0  0  0  0  0  0  0  0
   25.7455    4.1460   -0.0000 C   0  0  0  0  0  0  0  0  0  0  0  0
   23.2794    8.7208   -0.0000 O   0  0  0  0  0  0  0  0  0  0  0  0
   24.5065    6.4334   -0.0000 O   0  0  0  0  0  0  0  0  0  0  0  0
   27.0560    4.8727   -0.0000 C   0  0  0  0  0  0  0  0  0  0  0  0
   25.6859    2.6568   -0.0000 C   0  0  0  0  0  0  0  0  0  0  0  0
   27.0917    6.3857   -0.0000 O   0  0  0  0  0  0  0  0  0  0  0  0
   28.3189    4.0983   -0.0000 N   0  0  0  0  0  0  0  0  0  0  0  0
   24.3516    1.9538   -0.0000 C   0  0  0  0  0  0  0  0  0  0  0  0
   26.9488    1.8824   -0.0000 C   0  0  0  0  0  0  0  0  0  0  0  0
   29.6294    4.8250   -0.0000 C   0  0  0  0  0  0  0  0  0  0  0  0
   30.8922    4.0507   -0.0000 C   0  0  0  0  0  0  0  0  0  0  0  0
   29.6651    6.3381   -0.0000 C   0  0  0  0  0  0  0  0  0  0  0  0
   30.8326    2.5614   -0.0000 O   0  0  0  0  0  0  0  0  0  0  0  0
   32.2027    4.7774   -0.0000 N   0  0  0  0  0  0  0  0  0  0  0  0
   30.9756    7.0648   -0.0000 C   0  0  0  0  0  0  0  0  0  0  0  0
   33.4656    4.0030   -0.0000 C   0  0  0  0  0  0  0  0  0  0  0  0
   31.0113    8.5779   -0.0000 C   0  0  0  0  0  0  0  0  0  0  0  0
   34.7761    4.7297   -0.0000 C   0  0  0  0  0  0  0  0  0  0  0  0
   33.4060    2.5138   -0.0000 C   0  0  0  0  0  0  0  0  0  0  0  0
   32.3219    9.3046   -0.0000 C   0  0  0  0  0  0  0  0  0  0  0  0
   34.8118    6.2428   -0.0000 O   0  0  0  0  0  0  0  0  0  0  0  0
   36.0389    3.9553   -0.0000 N   0  0  0  0  0  0  0  0  0  0  0  0
   32.3576   10.8295   -0.0000 N   0  0  0  0  0  0  0  0  0  0  0  0
   37.3494    4.6821   -0.0000 C   0  0  0  0  0  0  0  0  0  0  0  0
   38.6123    3.9077   -0.0000 C   0  0  0  0  0  0  0  0  0  0  0  0
   37.3852    6.1951   -0.0000 C   0  0  0  0  0  0  0  0  0  0  0  0
   38.5527    2.4185   -0.0000 O   0  0  0  0  0  0  0  0  0  0  0  0
   39.9228    4.6344   -0.0000 N   0  0  0  0  0  0  0  0  0  0  0  0
   38.6957    6.9219   -0.0000 S   0  0  0  0  0  0  0  0  0  0  0  0
   41.1856    3.8600   -0.0000 C   0  0  0  0  0  0  0  0  0  0  0  0
   42.4961    4.5868   -0.0000 C   0  0  0  0  0  0  0  0  0  0  0  0
   41.1261    2.3827   -0.0000 C   0  0  0  0  0  0  0  0  0  0  0  0
   42.5319    6.1117   -0.0000 O   0  0  0  0  0  0  0  0  0  0  0  0
   43.7590    3.8124   -0.0000 N   0  0  0  0  0  0  0  0  0  0  0  0
   42.4008    1.5964   -0.0000 C   0  0  0  0  0  0  0  0  0  0  0  0
   45.0814    4.5391   -0.0000 C   0  0  0  0  0  0  0  0  0  0  0  0
   42.3413    0.1191   -0.0000 C   0  0  0  0  0  0  0  0  0  0  0  0
   46.3443    3.7647   -0.0000 C   0  0  0  0  0  0  0  0  0  0  0  0
   45.1172    6.0522   -0.0000 C   0  0  0  0  0  0  0  0  0  0  0  0
   43.6160   -0.6672   -0.0000 O   0  0  0  0  0  0  0  0  0  0  0  0
   41.0069   -0.5838   -0.0000 O   0  0  0  0  0  0  0  0  0  0  0  0
   46.2847    2.2755   -0.0000 O   0  0  0  0  0  0  0  0  0  0  0  0
   47.6548    4.4915   -0.0000 N   0  0  0  0  0  0  0  0  0  0  0  0
   46.4277    6.7789   -0.0000 C   0  0  0  0  0  0  0  0  0  0  0  0
   48.9176    3.7171   -0.0000 C   0  0  0  0  0  0  0  0  0  0  0  0
   46.5945    8.2800   -0.0000 C   0  0  0  0  0  0  0  0  0  0  0  0
   47.7620    6.1475   -0.0000 C   0  0  0  0  0  0  0  0  0  0  0  0
   50.2281    4.4438   -0.0000 C   0  0  0  0  0  0  0  0  0  0  0  0
   48.8581    2.2279   -0.0000 C   0  0  0  0  0  0  0  0  0  0  0  0
   48.0718    8.5659   -0.0000 C   0  0  0  0  0  0  0  0  0  0  0  0
   45.6175    9.4476   -0.0000 C   0  0  0  0  0  0  0  0  0  0  0  0
   48.7866    7.2435   -0.0000 N   0  0  0  0  0  0  0  0  0  0  0  0
   50.2639    5.9568   -0.0000 O   0  0  0  0  0  0  0  0  0  0  0  0
   51.4910    3.6694   -0.0000 N   0  0  0  0  0  0  0  0  0  0  0  0
   48.5602    9.9956   -0.0000 C   0  0  0  0  0  0  0  0  0  0  0  0
   46.0941   10.8653   -0.0000 C   0  0  0  0  0  0  0  0  0  0  0  0
   52.8015    4.3962   -0.0000 C   0  0  0  0  0  0  0  0  0  0  0  0
   47.5714   11.1393   -0.0000 C   0  0  0  0  0  0  0  0  0  0  0  0
   54.0643    3.6218   -0.0000 C   0  0  0  0  0  0  0  0  0  0  0  0
   52.8372    5.9211   -0.0000 C   0  0  0  0  0  0  0  0  0  0  0  0
   54.0048    2.1326   -0.0000 O   0  0  0  0  0  0  0  0  0  0  0  0
   55.3868    4.3485   -0.0000 N   0  0  0  0  0  0  0  0  0  0  0  0
   54.1358    6.6359   -0.0000 S   0  0  0  0  0  0  0  0  0  0  0  0
   56.6377    3.5622   -0.0000 C   0  0  0  0  0  0  0  0  0  0  0  0
   57.9601    4.2889   -0.0000 C   0  0  0  0  0  0  0  0  0  0  0  0
   56.5900    2.0849   -0.0000 C   0  0  0  0  0  0  0  0  0  0  0  0
   57.9840    5.8020   -0.0000 O   0  0  0  0  0  0  0  0  0  0  0  0
   59.2230    3.5145   -0.0000 O   0  0  0  0  0  0  0  0  0  0  0  0
   57.8529    1.2986   -0.0000 C   0  0  0  0  0  0  0  0  0  0  0  0
   57.7933   -0.1906   -0.0000 C   0  0  0  0  0  0  0  0  0  0  0  0
   59.0562   -0.9650   -0.0000 O   0  0  0  0  0  0  0  0  0  0  0  0
   56.4590   -0.8935   -0.0000 N   0  0  0  0  0  0  0  0  0  0  0  0
  1  2  1  0  0  0  0
  2  3  2  0  0  0  0
  2  4  1  0  0  0  0
  3  5  1  0  0  0  0
  4  6  2  0  0  0  0
  5  7  2  0  0  0  0
  7  8  1  0  0  0  0
  8  9  1  0  0  0  0
  9 10  1  6  0  0  0
  9 11  1  0  0  0  0
 10 12  1  0  0  0  0
 11 13  2  0  0  0  0
 11 14  1  0  0  0  0
 12 15  2  0  0  0  0
 12 16  1  0  0  0  0
 17 14  1  1  0  0  0
 16 18  1  6  0  0  0
 16 19  1  0  0  0  0
 17 20  1  0  0  0  0
 17 21  1  0  0  0  0
 18 22  1  0  0  0  0
 19 23  1  0  0  0  0
 20 24  2  0  0  0  0
 20 25  1  0  0  0  0
 21 26  1  0  0  0  0
 22 27  2  0  0  0  0
 22 28  1  0  0  0  0
 23 29  1  0  0  0  0
 23 30  1  0  0  0  0
 31 25  1  6  0  0  0
 28 32  1  1  0  0  0
 28 33  1  0  0  0  0
 31 34  1  0  0  0  0
 31 35  1  0  0  0  0
 32 36  1  0  0  0  0
 33 37  1  0  0  0  0
 34 38  2  0  0  0  0
 34 39  1  0  0  0  0
 35 40  1  0  0  0  0
 35 41  1  1  0  0  0
 36 42  2  0  0  0  0
 36 43  1  0  0  0  0
 37 44  1  0  0  0  0
 45 39  1  1  0  0  0
 40 46  1  0  0  0  0
 43 47  1  6  0  0  0
 43 48  1  0  0  0  0
 44 49  2  0  0  0  0
 44 50  1  0  0  0  0
 45 51  1  0  0  0  0
 45 52  1  0  0  0  0
 47 53  1  0  0  0  0
 48 54  1  0  0  0  0
 51 55  2  0  0  0  0
 51 56  1  0  0  0  0
 52 57  1  0  0  0  0
 53 58  2  0  0  0  0
 53 59  1  0  0  0  0
 56 60  1  0  0  0  0
 57 61  1  0  0  0  0
 59 62  1  1  0  0  0
 59 63  1  0  0  0  0
 60 64  1  0  0  0  0
 61 65  2  0  0  0  0
 61 66  1  0  0  0  0
 62 67  1  0  0  0  0
 63 68  1  0  0  0  0
 64 69  2  0  0  0  0
 64 70  1  0  0  0  0
 67 71  2  0  0  0  0
 67 72  1  0  0  0  0
 68 73  2  0  0  0  0
 68 74  1  0  0  0  0
 75 70  1  1  0  0  0
 72 76  1  6  0  0  0
 72 77  1  0  0  0  0
 73 78  1  0  0  0  0
 74 79  2  0  0  0  0
 75 80  1  0  0  0  0
 75 81  1  0  0  0  0
 76 82  1  0  0  0  0
 77 83  1  0  0  0  0
 78 84  2  0  0  0  0
 80 85  2  0  0  0  0
 80 86  1  0  0  0  0
 81 87  1  1  0  0  0
 81 88  1  0  0  0  0
 82 89  2  0  0  0  0
 82 90  1  0  0  0  0
 83 91  1  0  0  0  0
 86 92  1  0  0  0  0
 90 93  1  1  0  0  0
 90 94  1  0  0  0  0
 91 95  1  0  0  0  0
 92 96  1  0  0  0  0
 94 97  1  0  0  0  0
 95 98  1  0  0  0  0
 96 99  2  0  0  0  0
 96100  1  0  0  0  0
 97101  2  0  0  0  0
 97102  1  0  0  0  0
 98103  2  0  0  0  0
 98104  1  0  0  0  0
105100  1  1  0  0  0
105106  1  0  0  0  0
105107  1  0  0  0  0
106108  2  0  0  0  0
106109  1  0  0  0  0
107110  1  0  0  0  0
111109  1  6  0  0  0
110112  2  0  0  0  0
110113  1  0  0  0  0
111114  1  0  0  0  0
111115  1  0  0  0  0
114116  2  0  0  0  0
114117  1  0  0  0  0
115118  1  0  0  0  0
115119  1  0  0  0  0
120117  1  1  0  0  0
120121  1  0  0  0  0
120122  1  0  0  0  0
121123  2  0  0  0  0
121124  1  0  0  0  0
122125  1  0  0  0  0
126124  1  6  0  0  0
125127  1  0  0  0  0
126128  1  0  0  0  0
126129  1  0  0  0  0
127130  1  0  0  0  0
128131  2  0  0  0  0
128132  1  0  0  0  0
130133  1  0  0  0  0
134132  1  1  0  0  0
134135  1  0  0  0  0
134136  1  0  0  0  0
135137  2  0  0  0  0
135138  1  0  0  0  0
136139  1  0  0  0  0
140138  1  6  0  0  0
140141  1  0  0  0  0
140142  1  0  0  0  0
141143  2  0  0  0  0
141144  1  0  0  0  0
142145  1  0  0  0  0
146144  1  1  0  0  0
145147  1  0  0  0  0
146148  1  0  0  0  0
146149  1  0  0  0  0
147150  2  0  0  0  0
147151  1  0  0  0  0
148152  2  0  0  0  0
148153  1  0  0  0  0
149154  1  0  0  0  0
155153  1  6  0  0  0
154156  1  0  0  0  0
154157  2  0  0  0  0
155158  1  0  0  0  0
155159  1  0  0  0  0
156160  2  0  0  0  0
156161  1  0  0  0  0
157162  1  0  0  0  0
158163  2  0  0  0  0
158164  1  0  0  0  0
160165  1  0  0  0  0
161166  2  0  0  0  0
167164  1  1  0  0  0
165168  2  0  0  0  0
167169  1  0  0  0  0
167170  1  0  0  0  0
169171  2  0  0  0  0
169172  1  0  0  0  0
170173  1  0  0  0  0
174172  1  6  0  0  0
174175  1  0  0  0  0
174176  1  0  0  0  0
175177  2  0  0  0  0
175178  1  0  0  0  0
176179  1  0  0  0  0
179180  1  0  0  0  0
180181  2  0  0  0  0
180182  1  0  0  0  0
  6  7  1  0  0  0  0
 79 84  1  0  0  0  0
160162  1  0  0  0  0
166168  1  0  0  0  0
M  END
>  <MolRegNo>
1625082

>  <m>
=

>  <Value>
32000

>  <Unit>
nM

>  <Type>
Ki

>  <pValue>
4.5

>  <Ligand Efficiency>
0

>  <Binding Efficiency>
1.69

>  <Surface Efficiency>
0

>  <Assay Index>
831551

>  <Assay Category>


>  <Assay Organism>
Homo sapiens

>  <Target ID>
56

>  <Target Name>
Androgen Receptor

>  <Target Organism>
Homo sapiens

>  <Target Description>
Target is a single protein chain

>  <Sequence Accession>
P10275

>  <Reference>
Medchemcomm 4 (1), 187-192 (2013)

>  <Pubmed ID>


>  <DOI>
10.1039/C2MD20182H

$$$$
1625081
Actelion Java MolfileCreator 1.0

182185  0  0  0  0  0  0  0  0999 V2000
    0.0000   -0.0000   -0.0000 Cl  0  0  0  0  0  0  0  0  0  0  0  0
   -1.3263    0.7528   -0.0000 C   0  0  0  0  0  0  0  0  0  0  0  0
   -1.3621    2.2702   -0.0000 C   0  0  0  0  0  0  0  0  0  0  0  0
   -2.6406   -0.0119   -0.0000 C   0  0  0  0  0  0  0  0  0  0  0  0
   -2.6765    2.9991   -0.0000 C   0  0  0  0  0  0  0  0  0  0  0  0
   -3.9669    0.7408   -0.0000 C   0  0  0  0  0  0  0  0  0  0  0  0
   -3.9788    2.2344   -0.0000 C   0  0  0  0  0  0  0  0  0  0  0  0
   -5.3051    2.9871   -0.0000 C   0  0  0  0  0  0  0  0  0  0  0  0
   -5.3290    4.4926   -0.0000 C   0  0  0  0  0  0  0  0  0  0  0  0
   -6.6553    5.2454   -0.0000 N   0  0  0  0  0  0  0  0  0  0  0  0
   -4.0386    5.2693   -0.0000 C   0  0  0  0  0  0  0  0  0  0  0  0
   -6.6792    6.7509   -0.0000 C   0  0  0  0  0  0  0  0  0  0  0  0
   -4.0625    6.7867   -0.0000 O   0  0  0  0  0  0  0  0  0  0  0  0
   -2.7482    4.5524   -0.0000 N   0  0  0  0  0  0  0  0  0  0  0  0
   -5.4007    7.5275   -0.0000 O   0  0  0  0  0  0  0  0  0  0  0  0
   -8.0055    7.5037   -0.0000 C   0  0  0  0  0  0  0  0  0  0  0  0
   -1.4577    5.3290   -0.0000 C   0  0  0  0  0  0  0  0  0  0  0  0
   -8.0294    9.0092   -0.0000 N   0  0  0  0  0  0  0  0  0  0  0  0
   -9.3079    6.7509   -0.0000 C   0  0  0  0  0  0  0  0  0  0  0  0
   -0.1553    4.6002   -0.0000 C   0  0  0  0  0  0  0  0  0  0  0  0
   -1.4816    6.8465   -0.0000 C   0  0  0  0  0  0  0  0  0  0  0  0
   -9.3437    9.7619   -0.0000 C   0  0  0  0  0  0  0  0  0  0  0  0
   -9.3079    5.2573   -0.0000 C   0  0  0  0  0  0  0  0  0  0  0  0
   -0.1553    3.1186   -0.0000 O   0  0  0  0  0  0  0  0  0  0  0  0
    1.1351    5.3768   -0.0000 N   0  0  0  0  0  0  0  0  0  0  0  0
   -0.2031    7.6231   -0.0000 S   0  0  0  0  0  0  0  0  0  0  0  0
  -10.6461    9.0092   -0.0000 O   0  0  0  0  0  0  0  0  0  0  0  0
   -9.3796   11.2794   -0.0000 C   0  0  0  0  0  0  0  0  0  0  0  0
  -10.6103    4.5046   -0.0000 C   0  0  0  0  0  0  0  0  0  0  0  0
    2.4255    4.6480   -0.0000 C   0  0  0  0  0  0  0  0  0  0  0  0
  -10.6939   12.0321   -0.0000 N   0  0  0  0  0  0  0  0  0  0  0  0
   -8.1011   12.0560   -0.0000 C   0  0  0  0  0  0  0  0  0  0  0  0
  -10.6103    3.0110   -0.0000 N   0  0  0  0  0  0  0  0  0  0  0  0
    3.7160    5.4246   -0.0000 C   0  0  0  0  0  0  0  0  0  0  0  0
    2.4375    3.1544   -0.0000 C   0  0  0  0  0  0  0  0  0  0  0  0
   -6.7987   11.3272   -0.0000 C   0  0  0  0  0  0  0  0  0  0  0  0
  -11.9126    2.2583   -0.0000 C   0  0  0  0  0  0  0  0  0  0  0  0
    3.6921    6.9421   -0.0000 O   0  0  0  0  0  0  0  0  0  0  0  0
    5.0184    4.6958   -0.0000 N   0  0  0  0  0  0  0  0  0  0  0  0
    3.7279    2.4255   -0.0000 C   0  0  0  0  0  0  0  0  0  0  0  0
   -5.5083   12.1038   -0.0000 O   0  0  0  0  0  0  0  0  0  0  0  0
   -6.7987    9.8336   -0.0000 N   0  0  0  0  0  0  0  0  0  0  0  0
  -11.9007    0.7647   -0.0000 N   0  0  0  0  0  0  0  0  0  0  0  0
  -13.2270    3.0110   -0.0000 N   0  0  0  0  0  0  0  0  0  0  0  0
    6.2969    5.4724   -0.0000 C   0  0  0  0  0  0  0  0  0  0  0  0
    3.7399    0.9320   -0.0000 C   0  0  0  0  0  0  0  0  0  0  0  0
    7.5873    4.7555   -0.0000 C   0  0  0  0  0  0  0  0  0  0  0  0
    6.2730    6.9899   -0.0000 C   0  0  0  0  0  0  0  0  0  0  0  0
    5.0303    0.2031   -0.0000 O   0  0  0  0  0  0  0  0  0  0  0  0
    2.4375    0.1792   -0.0000 O   0  0  0  0  0  0  0  0  0  0  0  0
    7.5873    3.2619   -0.0000 O   0  0  0  0  0  0  0  0  0  0  0  0
    8.8777    5.5322   -0.0000 N   0  0  0  0  0  0  0  0  0  0  0  0
    7.5514    7.7665   -0.0000 C   0  0  0  0  0  0  0  0  0  0  0  0
   10.1682    4.8033   -0.0000 C   0  0  0  0  0  0  0  0  0  0  0  0
    7.5275    9.2840   -0.0000 C   0  0  0  0  0  0  0  0  0  0  0  0
    8.8419    7.0377   -0.0000 C   0  0  0  0  0  0  0  0  0  0  0  0
   11.4467    5.5799   -0.0000 C   0  0  0  0  0  0  0  0  0  0  0  0
   10.1682    3.3217   -0.0000 C   0  0  0  0  0  0  0  0  0  0  0  0
   11.4347    7.0974   -0.0000 O   0  0  0  0  0  0  0  0  0  0  0  0
   12.7610    4.8630   -0.0000 N   0  0  0  0  0  0  0  0  0  0  0  0
   11.4586    2.5928   -0.0000 C   0  0  0  0  0  0  0  0  0  0  0  0
   14.0395    5.6397   -0.0000 C   0  0  0  0  0  0  0  0  0  0  0  0
   12.7251    3.3695   -0.0000 C   0  0  0  0  0  0  0  0  0  0  0  0
   11.4586    1.1112   -0.0000 C   0  0  0  0  0  0  0  0  0  0  0  0
   15.3419    4.9108   -0.0000 C   0  0  0  0  0  0  0  0  0  0  0  0
   14.0275    7.1571   -0.0000 C   0  0  0  0  0  0  0  0  0  0  0  0
   14.0275    2.6406   -0.0000 C   0  0  0  0  0  0  0  0  0  0  0  0
   12.7490    0.3824   -0.0000 C   0  0  0  0  0  0  0  0  0  0  0  0
   15.3299    3.4292   -0.0000 O   0  0  0  0  0  0  0  0  0  0  0  0
   16.6323    5.6875   -0.0000 N   0  0  0  0  0  0  0  0  0  0  0  0
   15.3060    7.9338   -0.0000 S   0  0  0  0  0  0  0  0  0  0  0  0
   14.0156    1.1471   -0.0000 C   0  0  0  0  0  0  0  0  0  0  0  0
   17.9227    4.9586   -0.0000 C   0  0  0  0  0  0  0  0  0  0  0  0
   19.2251    5.7353   -0.0000 C   0  0  0  0  0  0  0  0  0  0  0  0
   17.9347    3.4651   -0.0000 C   0  0  0  0  0  0  0  0  0  0  0  0
   19.1893    7.2527   -0.0000 O   0  0  0  0  0  0  0  0  0  0  0  0
   20.5036    5.0064   -0.0000 N   0  0  0  0  0  0  0  0  0  0  0  0
   16.6323    2.7123   -0.0000 C   0  0  0  0  0  0  0  0  0  0  0  0
   19.2251    2.7362   -0.0000 C   0  0  0  0  0  0  0  0  0  0  0  0
   21.7940    5.7831   -0.0000 C   0  0  0  0  0  0  0  0  0  0  0  0
   16.6204    1.2187   -0.0000 C   0  0  0  0  0  0  0  0  0  0  0  0
   23.0845    5.0662   -0.0000 C   0  0  0  0  0  0  0  0  0  0  0  0
   21.7702    7.3005   -0.0000 C   0  0  0  0  0  0  0  0  0  0  0  0
   23.0845    3.5726   -0.0000 O   0  0  0  0  0  0  0  0  0  0  0  0
   24.3749    5.8428   -0.0000 N   0  0  0  0  0  0  0  0  0  0  0  0
   23.0486    8.0772   -0.0000 C   0  0  0  0  0  0  0  0  0  0  0  0
   25.6654    5.1140   -0.0000 C   0  0  0  0  0  0  0  0  0  0  0  0
   23.0247    9.5946   -0.0000 C   0  0  0  0  0  0  0  0  0  0  0  0
   26.9438    5.8906   -0.0000 C   0  0  0  0  0  0  0  0  0  0  0  0
   24.3152   10.3713   -0.0000 O   0  0  0  0  0  0  0  0  0  0  0  0
   21.7104   10.3474   -0.0000 N   0  0  0  0  0  0  0  0  0  0  0  0
   26.9200    7.4081   -0.0000 O   0  0  0  0  0  0  0  0  0  0  0  0
   28.2462    5.1617   -0.0000 N   0  0  0  0  0  0  0  0  0  0  0  0
   29.5247    5.9384   -0.0000 C   0  0  0  0  0  0  0  0  0  0  0  0
   30.8271    5.2095   -0.0000 C   0  0  0  0  0  0  0  0  0  0  0  0
   29.5128    7.4559   -0.0000 C   0  0  0  0  0  0  0  0  0  0  0  0
   30.8152    3.7279   -0.0000 O   0  0  0  0  0  0  0  0  0  0  0  0
   32.1175    5.9862   -0.0000 N   0  0  0  0  0  0  0  0  0  0  0  0
   30.7913    8.2325   -0.0000 O   0  0  0  0  0  0  0  0  0  0  0  0
   28.1865    8.2086   -0.0000 C   0  0  0  0  0  0  0  0  0  0  0  0
   33.4080    5.2573   -0.0000 C   0  0  0  0  0  0  0  0  0  0  0  0
   34.6984    6.0340   -0.0000 C   0  0  0  0  0  0  0  0  0  0  0  0
   34.6745    7.5514   -0.0000 O   0  0  0  0  0  0  0  0  0  0  0  0
   35.9889    5.3051   -0.0000 N   0  0  0  0  0  0  0  0  0  0  0  0
   37.2793    6.0818   -0.0000 C   0  0  0  0  0  0  0  0  0  0  0  0
   38.5817    5.3529   -0.0000 C   0  0  0  0  0  0  0  0  0  0  0  0
   37.2554    7.5992   -0.0000 C   0  0  0  0  0  0  0  0  0  0  0  0
   38.5817    3.8713   -0.0000 O   0  0  0  0  0  0  0  0  0  0  0  0
   39.8721    6.1296   -0.0000 N   0  0  0  0  0  0  0  0  0  0  0  0
   38.5339    8.3759   -0.0000 C   0  0  0  0  0  0  0  0  0  0  0  0
   41.1626    5.4007   -0.0000 C   0  0  0  0  0  0  0  0  0  0  0  0
   38.5100    9.8934   -0.0000 O   0  0  0  0  0  0  0  0  0  0  0  0
   39.8243    7.6470   -0.0000 O   0  0  0  0  0  0  0  0  0  0  0  0
   42.4530    6.1774   -0.0000 C   0  0  0  0  0  0  0  0  0  0  0  0
   41.1745    3.9072   -0.0000 C   0  0  0  0  0  0  0  0  0  0  0  0
   42.4171    7.6948   -0.0000 O   0  0  0  0  0  0  0  0  0  0  0  0
   43.7434    5.4485   -0.0000 N   0  0  0  0  0  0  0  0  0  0  0  0
   42.4649    3.1783   -0.0000 C   0  0  0  0  0  0  0  0  0  0  0  0
   39.8721    3.1544   -0.0000 C   0  0  0  0  0  0  0  0  0  0  0  0
   45.0339    6.2252   -0.0000 C   0  0  0  0  0  0  0  0  0  0  0  0
   46.3243    5.5083   -0.0000 C   0  0  0  0  0  0  0  0  0  0  0  0
   45.0100    7.7426   -0.0000 C   0  0  0  0  0  0  0  0  0  0  0  0
   46.3243    4.0147   -0.0000 O   0  0  0  0  0  0  0  0  0  0  0  0
   47.6147    6.2849   -0.0000 N   0  0  0  0  0  0  0  0  0  0  0  0
   46.2885    8.5193   -0.0000 C   0  0  0  0  0  0  0  0  0  0  0  0
   48.9171    5.5560   -0.0000 C   0  0  0  0  0  0  0  0  0  0  0  0
   46.2646   10.0367   -0.0000 C   0  0  0  0  0  0  0  0  0  0  0  0
   50.2076    6.3327   -0.0000 C   0  0  0  0  0  0  0  0  0  0  0  0
   48.9171    4.0744   -0.0000 C   0  0  0  0  0  0  0  0  0  0  0  0
   47.5430   10.8134   -0.0000 C   0  0  0  0  0  0  0  0  0  0  0  0
   50.1717    7.8502   -0.0000 O   0  0  0  0  0  0  0  0  0  0  0  0
   51.4980    5.6038   -0.0000 N   0  0  0  0  0  0  0  0  0  0  0  0
   47.5191   12.3308   -0.0000 N   0  0  0  0  0  0  0  0  0  0  0  0
   52.7884    6.3805   -0.0000 C   0  0  0  0  0  0  0  0  0  0  0  0
   54.0908    5.6516   -0.0000 C   0  0  0  0  0  0  0  0  0  0  0  0
   52.7645    7.8980   -0.0000 C   0  0  0  0  0  0  0  0  0  0  0  0
   54.0908    4.1581   -0.0000 O   0  0  0  0  0  0  0  0  0  0  0  0
   55.3693    6.4283   -0.0000 N   0  0  0  0  0  0  0  0  0  0  0  0
   54.0550    8.6746   -0.0000 S   0  0  0  0  0  0  0  0  0  0  0  0
   56.6717    5.7114   -0.0000 C   0  0  0  0  0  0  0  0  0  0  0  0
   57.9621    6.4880   -0.0000 C   0  0  0  0  0  0  0  0  0  0  0  0
   56.6717    4.2178   -0.0000 C   0  0  0  0  0  0  0  0  0  0  0  0
   57.9263    8.0055   -0.0000 O   0  0  0  0  0  0  0  0  0  0  0  0
   59.2406    5.7472   -0.0000 N   0  0  0  0  0  0  0  0  0  0  0  0
   57.9860    3.5009   -0.0000 C   0  0  0  0  0  0  0  0  0  0  0  0
   60.5311    6.5239   -0.0000 C   0  0  0  0  0  0  0  0  0  0  0  0
   57.9860    2.0073   -0.0000 C   0  0  0  0  0  0  0  0  0  0  0  0
   61.8334    5.8070   -0.0000 C   0  0  0  0  0  0  0  0  0  0  0  0
   60.5072    8.0413   -0.0000 C   0  0  0  0  0  0  0  0  0  0  0  0
   59.2884    1.2785   -0.0000 O   0  0  0  0  0  0  0  0  0  0  0  0
   56.6717    1.2546   -0.0000 O   0  0  0  0  0  0  0  0  0  0  0  0
   61.8334    4.3134   -0.0000 O   0  0  0  0  0  0  0  0  0  0  0  0
   63.1119    6.5836   -0.0000 N   0  0  0  0  0  0  0  0  0  0  0  0
   61.7976    8.8180   -0.0000 C   0  0  0  0  0  0  0  0  0  0  0  0
   64.4143    5.8548   -0.0000 C   0  0  0  0  0  0  0  0  0  0  0  0
   61.9171   10.3235   -0.0000 C   0  0  0  0  0  0  0  0  0  0  0  0
   63.1597    8.2325   -0.0000 C   0  0  0  0  0  0  0  0  0  0  0  0
   65.6928    6.6314   -0.0000 C   0  0  0  0  0  0  0  0  0  0  0  0
   64.4143    4.3612   -0.0000 C   0  0  0  0  0  0  0  0  0  0  0  0
   63.3867   10.6700   -0.0000 C   0  0  0  0  0  0  0  0  0  0  0  0
   60.9015   11.4467   -0.0000 C   0  0  0  0  0  0  0  0  0  0  0  0
   64.1395    9.3676   -0.0000 N   0  0  0  0  0  0  0  0  0  0  0  0
   65.6570    8.1489   -0.0000 O   0  0  0  0  0  0  0  0  0  0  0  0
   66.9832    5.9026   -0.0000 N   0  0  0  0  0  0  0  0  0  0  0  0
   63.8288   12.1158   -0.0000 C   0  0  0  0  0  0  0  0  0  0  0  0
   61.3316   12.8924   -0.0000 C   0  0  0  0  0  0  0  0  0  0  0  0
   68.2617    6.6792   -0.0000 C   0  0  0  0  0  0  0  0  0  0  0  0
   62.7893   13.2389   -0.0000 C   0  0  0  0  0  0  0  0  0  0  0  0
   69.5641    5.9503   -0.0000 C   0  0  0  0  0  0  0  0  0  0  0  0
   68.2498    8.2086   -0.0000 C   0  0  0  0  0  0  0  0  0  0  0  0
   69.5641    4.4568   -0.0000 O   0  0  0  0  0  0  0  0  0  0  0  0
   70.8546    6.7270   -0.0000 N   0  0  0  0  0  0  0  0  0  0  0  0
   69.5163    8.9733   -0.0000 S   0  0  0  0  0  0  0  0  0  0  0  0
   72.1450    5.9981   -0.0000 C   0  0  0  0  0  0  0  0  0  0  0  0
   73.4354    6.7748   -0.0000 C   0  0  0  0  0  0  0  0  0  0  0  0
   72.1569    4.5165   -0.0000 C   0  0  0  0  0  0  0  0  0  0  0  0
   73.3996    8.2923   -0.0000 O   0  0  0  0  0  0  0  0  0  0  0  0
   74.7259    6.0459   -0.0000 O   0  0  0  0  0  0  0  0  0  0  0  0
   73.4593    3.7877   -0.0000 C   0  0  0  0  0  0  0  0  0  0  0  0
   73.4593    2.2941   -0.0000 C   0  0  0  0  0  0  0  0  0  0  0  0
   74.7617    1.5653   -0.0000 O   0  0  0  0  0  0  0  0  0  0  0  0
   72.1450    1.5414   -0.0000 N   0  0  0  0  0  0  0  0  0  0  0  0
  1  2  1  0  0  0  0
  2  3  2  0  0  0  0
  2  4  1  0  0  0  0
  3  5  1  0  0  0  0
  4  6  2  0  0  0  0
  5  7  2  0  0  0  0
  7  8  1  0  0  0  0
  8  9  1  0  0  0  0
  9 10  1  6  0  0  0
  9 11  1  0  0  0  0
 10 12  1  0  0  0  0
 11 13  2  0  0  0  0
 11 14  1  0  0  0  0
 12 15  2  0  0  0  0
 12 16  1  0  0  0  0
 17 14  1  1  0  0  0
 16 18  1  6  0  0  0
 16 19  1  0  0  0  0
 17 20  1  0  0  0  0
 17 21  1  0  0  0  0
 18 22  1  0  0  0  0
 19 23  1  0  0  0  0
 20 24  2  0  0  0  0
 20 25  1  0  0  0  0
 21 26  1  0  0  0  0
 22 27  2  0  0  0  0
 22 28  1  0  0  0  0
 23 29  1  0  0  0  0
 30 25  1  6  0  0  0
 28 31  1  1  0  0  0
 28 32  1  0  0  0  0
 29 33  1  0  0  0  0
 30 34  1  0  0  0  0
 30 35  1  0  0  0  0
 32 36  1  0  0  0  0
 33 37  1  0  0  0  0
 34 38  2  0  0  0  0
 34 39  1  0  0  0  0
 35 40  1  0  0  0  0
 36 41  2  0  0  0  0
 36 42  1  0  0  0  0
 37 43  2  0  0  0  0
 37 44  1  0  0  0  0
 45 39  1  1  0  0  0
 40 46  1  0  0  0  0
 45 47  1  0  0  0  0
 45 48  1  0  0  0  0
 46 49  2  0  0  0  0
 46 50  1  0  0  0  0
 47 51  2  0  0  0  0
 47 52  1  0  0  0  0
 48 53  1  0  0  0  0
 54 52  1  6  0  0  0
 53 55  1  0  0  0  0
 53 56  1  0  0  0  0
 54 57  1  0  0  0  0
 54 58  1  0  0  0  0
 57 59  2  0  0  0  0
 57 60  1  0  0  0  0
 58 61  1  0  0  0  0
 62 60  1  1  0  0  0
 61 63  2  0  0  0  0
 61 64  1  0  0  0  0
 62 65  1  0  0  0  0
 62 66  1  0  0  0  0
 63 67  1  0  0  0  0
 64 68  2  0  0  0  0
 65 69  2  0  0  0  0
 65 70  1  0  0  0  0
 66 71  1  0  0  0  0
 67 72  2  0  0  0  0
 73 70  1  6  0  0  0
 73 74  1  0  0  0  0
 73 75  1  0  0  0  0
 74 76  2  0  0  0  0
 74 77  1  0  0  0  0
 75 78  1  0  0  0  0
 75 79  1  1  0  0  0
 80 77  1  1  0  0  0
 78 81  1  0  0  0  0
 80 82  1  0  0  0  0
 80 83  1  0  0  0  0
 82 84  2  0  0  0  0
 82 85  1  0  0  0  0
 83 86  1  0  0  0  0
 85 87  1  0  0  0  0
 86 88  1  0  0  0  0
 87 89  1  0  0  0  0
 88 90  2  0  0  0  0
 88 91  1  0  0  0  0
 89 92  2  0  0  0  0
 89 93  1  0  0  0  0
 94 93  1  1  0  0  0
 94 95  1  0  0  0  0
 94 96  1  0  0  0  0
 95 97  2  0  0  0  0
 95 98  1  0  0  0  0
 96 99  1  1  0  0  0
 96100  1  0  0  0  0
 98101  1  0  0  0  0
101102  1  0  0  0  0
102103  2  0  0  0  0
102104  1  0  0  0  0
105104  1  1  0  0  0
105106  1  0  0  0  0
105107  1  0  0  0  0
106108  2  0  0  0  0
106109  1  0  0  0  0
107110  1  0  0  0  0
111109  1  6  0  0  0
110112  2  0  0  0  0
110113  1  0  0  0  0
111114  1  0  0  0  0
111115  1  0  0  0  0
114116  2  0  0  0  0
114117  1  0  0  0  0
115118  1  0  0  0  0
115119  1  0  0  0  0
120117  1  1  0  0  0
120121  1  0  0  0  0
120122  1  0  0  0  0
121123  2  0  0  0  0
121124  1  0  0  0  0
122125  1  0  0  0  0
126124  1  6  0  0  0
125127  1  0  0  0  0
126128  1  0  0  0  0
126129  1  0  0  0  0
127130  1  0  0  0  0
128131  2  0  0  0  0
128132  1  0  0  0  0
130133  1  0  0  0  0
134132  1  1  0  0  0
134135  1  0  0  0  0
134136  1  0  0  0  0
135137  2  0  0  0  0
135138  1  0  0  0  0
136139  1  0  0  0  0
140138  1  6  0  0  0
140141  1  0  0  0  0
140142  1  0  0  0  0
141143  2  0  0  0  0
141144  1  0  0  0  0
142145  1  0  0  0  0
146144  1  1  0  0  0
145147  1  0  0  0  0
146148  1  0  0  0  0
146149  1  0  0  0  0
147150  2  0  0  0  0
147151  1  0  0  0  0
148152  2  0  0  0  0
148153  1  0  0  0  0
149154  1  0  0  0  0
155153  1  6  0  0  0
154156  1  0  0  0  0
154157  2  0  0  0  0
155158  1  0  0  0  0
155159  1  0  0  0  0
156160  2  0  0  0  0
156161  1  0  0  0  0
157162  1  0  0  0  0
158163  2  0  0  0  0
158164  1  0  0  0  0
160165  1  0  0  0  0
161166  2  0  0  0  0
167164  1  1  0  0  0
165168  2  0  0  0  0
167169  1  0  0  0  0
167170  1  0  0  0  0
169171  2  0  0  0  0
169172  1  0  0  0  0
170173  1  0  0  0  0
174172  1  6  0  0  0
174175  1  0  0  0  0
174176  1  0  0  0  0
175177  2  0  0  0  0
175178  1  0  0  0  0
176179  1  0  0  0  0
179180  1  0  0  0  0
180181  2  0  0  0  0
180182  1  0  0  0  0
  6  7  1  0  0  0  0
 68 72  1  0  0  0  0
160162  1  0  0  0  0
166168  1  0  0  0  0
M  END
>  <MolRegNo>
1625081

>  <m>
=

>  <Value>
2300

>  <Unit>
nM

>  <Type>
Ki

>  <pValue>
5.64

>  <Ligand Efficiency>
0

>  <Binding Efficiency>
2.12

>  <Surface Efficiency>
0

>  <Assay Index>
831551

>  <Assay Category>


>  <Assay Organism>
Homo sapiens

>  <Target ID>
56

>  <Target Name>
Androgen Receptor

>  <Target Organism>
Homo sapiens

>  <Target Description>
Target is a single protein chain

>  <Sequence Accession>
P10275

>  <Reference>
Medchemcomm 4 (1), 187-192 (2013)

>  <Pubmed ID>


>  <DOI>
10.1039/C2MD20182H

$$$$
1625080
Actelion Java MolfileCreator 1.0

184188  0  0  0  0  0  0  0  0999 V2000
    0.0000   -0.0000   -0.0000 S   0  0  0  0  0  0  0  0  0  0  0  0
   -1.3231    0.7629   -0.0000 C   0  0  0  0  0  0  0  0  0  0  0  0
   -1.3350    2.2886   -0.0000 C   0  0  0  0  0  0  0  0  0  0  0  0
   -2.6462    3.0515   -0.0000 N   0  0  0  0  0  0  0  0  0  0  0  0
   -0.0358    3.0515   -0.0000 C   0  0  0  0  0  0  0  0  0  0  0  0
   -3.9694    2.3125   -0.0000 C   0  0  0  0  0  0  0  0  0  0  0  0
   -0.0477    4.5654   -0.0000 O   0  0  0  0  0  0  0  0  0  0  0  0
    1.2516    2.3125   -0.0000 N   0  0  0  0  0  0  0  0  0  0  0  0
   -3.9813    0.8106   -0.0000 O   0  0  0  0  0  0  0  0  0  0  0  0
   -5.2806    3.0754   -0.0000 C   0  0  0  0  0  0  0  0  0  0  0  0
    2.5509    3.0754   -0.0000 C   0  0  0  0  0  0  0  0  0  0  0  0
   -6.5918    2.3363   -0.0000 N   0  0  0  0  0  0  0  0  0  0  0  0
   -5.2925    4.5892   -0.0000 C   0  0  0  0  0  0  0  0  0  0  0  0
    3.8383    2.3363   -0.0000 C   0  0  0  0  0  0  0  0  0  0  0  0
    2.5390    4.5892   -0.0000 C   0  0  0  0  0  0  0  0  0  0  0  0
   -7.9268    3.0992   -0.0000 C   0  0  0  0  0  0  0  0  0  0  0  0
   -4.0051    5.3640   -0.0000 C   0  0  0  0  0  0  0  0  0  0  0  0
    3.8263    0.8463   -0.0000 O   0  0  0  0  0  0  0  0  0  0  0  0
    5.1256    3.0992   -0.0000 N   0  0  0  0  0  0  0  0  0  0  0  0
    3.8263    5.3521   -0.0000 C   0  0  0  0  0  0  0  0  0  0  0  0
   -7.9387    4.6131   -0.0000 O   0  0  0  0  0  0  0  0  0  0  0  0
   -9.2261    2.3602   -0.0000 C   0  0  0  0  0  0  0  0  0  0  0  0
   -2.7178    4.6131   -0.0000 C   0  0  0  0  0  0  0  0  0  0  0  0
   -4.0171    6.8779   -0.0000 C   0  0  0  0  0  0  0  0  0  0  0  0
    6.4368    2.3482   -0.0000 C   0  0  0  0  0  0  0  0  0  0  0  0
    5.1018    4.6131   -0.0000 C   0  0  0  0  0  0  0  0  0  0  0  0
    3.8144    6.8659   -0.0000 C   0  0  0  0  0  0  0  0  0  0  0  0
  -10.5373    3.1231   -0.0000 N   0  0  0  0  0  0  0  0  0  0  0  0
   -9.2380    0.8702   -0.0000 C   0  0  0  0  0  0  0  0  0  0  0  0
   -1.4304    5.3759   -0.0000 C   0  0  0  0  0  0  0  0  0  0  0  0
   -2.7416    7.6407   -0.0000 C   0  0  0  0  0  0  0  0  0  0  0  0
    7.7123    3.1111   -0.0000 C   0  0  0  0  0  0  0  0  0  0  0  0
    6.4249    0.8582   -0.0000 C   0  0  0  0  0  0  0  0  0  0  0  0
    6.3891    5.3759   -0.0000 C   0  0  0  0  0  0  0  0  0  0  0  0
    5.0899    7.6288   -0.0000 C   0  0  0  0  0  0  0  0  0  0  0  0
  -11.8485    2.3840   -0.0000 C   0  0  0  0  0  0  0  0  0  0  0  0
   -7.9626    0.1311   -0.0000 C   0  0  0  0  0  0  0  0  0  0  0  0
   -1.4423    6.8898   -0.0000 C   0  0  0  0  0  0  0  0  0  0  0  0
    7.7003    4.6250   -0.0000 O   0  0  0  0  0  0  0  0  0  0  0  0
    8.9996    2.3602   -0.0000 N   0  0  0  0  0  0  0  0  0  0  0  0
    7.7003    0.1192   -0.0000 C   0  0  0  0  0  0  0  0  0  0  0  0
    6.3772    6.8898   -0.0000 C   0  0  0  0  0  0  0  0  0  0  0  0
  -11.8604    0.8940   -0.0000 O   0  0  0  0  0  0  0  0  0  0  0  0
  -13.1597    3.1469   -0.0000 C   0  0  0  0  0  0  0  0  0  0  0  0
   -7.9745   -1.3589   -0.0000 C   0  0  0  0  0  0  0  0  0  0  0  0
   -6.6633    0.8940   -0.0000 C   0  0  0  0  0  0  0  0  0  0  0  0
   10.2870    3.1231   -0.0000 C   0  0  0  0  0  0  0  0  0  0  0  0
    7.6884   -1.3708   -0.0000 C   0  0  0  0  0  0  0  0  0  0  0  0
  -14.4709    2.4078   -0.0000 N   0  0  0  0  0  0  0  0  0  0  0  0
  -13.1716    4.6607   -0.0000 C   0  0  0  0  0  0  0  0  0  0  0  0
   11.5744    2.3840   -0.0000 C   0  0  0  0  0  0  0  0  0  0  0  0
    8.9877   -2.1098   -0.0000 O   0  0  0  0  0  0  0  0  0  0  0  0
    6.3772   -2.1098   -0.0000 N   0  0  0  0  0  0  0  0  0  0  0  0
  -15.7821    3.1707   -0.0000 C   0  0  0  0  0  0  0  0  0  0  0  0
  -11.8843    5.4236   -0.0000 C   0  0  0  0  0  0  0  0  0  0  0  0
   11.5624    0.8940   -0.0000 O   0  0  0  0  0  0  0  0  0  0  0  0
   12.8617    3.1469   -0.0000 N   0  0  0  0  0  0  0  0  0  0  0  0
  -15.7941    4.6846   -0.0000 O   0  0  0  0  0  0  0  0  0  0  0  0
  -17.0814    2.4317   -0.0000 C   0  0  0  0  0  0  0  0  0  0  0  0
  -11.8962    6.9375   -0.0000 C   0  0  0  0  0  0  0  0  0  0  0  0
   14.1491    2.4078   -0.0000 C   0  0  0  0  0  0  0  0  0  0  0  0
  -18.4165    3.1946   -0.0000 N   0  0  0  0  0  0  0  0  0  0  0  0
  -17.0933    0.9417   -0.0000 C   0  0  0  0  0  0  0  0  0  0  0  0
  -10.6088    7.7123   -0.0000 O   0  0  0  0  0  0  0  0  0  0  0  0
  -13.2074    7.7003   -0.0000 O   0  0  0  0  0  0  0  0  0  0  0  0
   15.4245    3.1707   -0.0000 C   0  0  0  0  0  0  0  0  0  0  0  0
   14.1372    0.9178   -0.0000 C   0  0  0  0  0  0  0  0  0  0  0  0
  -19.7157    2.4555   -0.0000 C   0  0  0  0  0  0  0  0  0  0  0  0
  -15.8179    0.2026   -0.0000 S   0  0  0  0  0  0  0  0  0  0  0  0
   15.4126    4.6846   -0.0000 O   0  0  0  0  0  0  0  0  0  0  0  0
   16.7357    2.4317   -0.0000 N   0  0  0  0  0  0  0  0  0  0  0  0
   15.4126    0.1788   -0.0000 O   0  0  0  0  0  0  0  0  0  0  0  0
   12.8260    0.1788   -0.0000 C   0  0  0  0  0  0  0  0  0  0  0  0
  -19.7277    0.9655   -0.0000 O   0  0  0  0  0  0  0  0  0  0  0  0
  -21.0389    3.2184   -0.0000 C   0  0  0  0  0  0  0  0  0  0  0  0
   18.0112    3.1946   -0.0000 C   0  0  0  0  0  0  0  0  0  0  0  0
  -22.3501    2.4794   -0.0000 N   0  0  0  0  0  0  0  0  0  0  0  0
  -21.0508    4.7323   -0.0000 C   0  0  0  0  0  0  0  0  0  0  0  0
   19.2985    2.4555   -0.0000 C   0  0  0  0  0  0  0  0  0  0  0  0
  -23.6732    3.2423   -0.0000 C   0  0  0  0  0  0  0  0  0  0  0  0
  -19.7515    5.4951   -0.0000 C   0  0  0  0  0  0  0  0  0  0  0  0
   19.2866    0.9655   -0.0000 O   0  0  0  0  0  0  0  0  0  0  0  0
   20.5978    3.2184   -0.0000 N   0  0  0  0  0  0  0  0  0  0  0  0
  -23.6851    4.7680   -0.0000 O   0  0  0  0  0  0  0  0  0  0  0  0
  -24.9963    2.5032   -0.0000 C   0  0  0  0  0  0  0  0  0  0  0  0
  -18.4880    4.7561   -0.0000 C   0  0  0  0  0  0  0  0  0  0  0  0
  -19.7634    7.0090   -0.0000 C   0  0  0  0  0  0  0  0  0  0  0  0
   21.8852    2.4794   -0.0000 C   0  0  0  0  0  0  0  0  0  0  0  0
  -26.3075    3.2661   -0.0000 N   0  0  0  0  0  0  0  0  0  0  0  0
  -25.0082    1.0132   -0.0000 C   0  0  0  0  0  0  0  0  0  0  0  0
  -17.1887    5.5190   -0.0000 C   0  0  0  0  0  0  0  0  0  0  0  0
  -18.4880    7.7719   -0.0000 C   0  0  0  0  0  0  0  0  0  0  0  0
   23.1845    3.2423   -0.0000 C   0  0  0  0  0  0  0  0  0  0  0  0
   21.8733    0.9894   -0.0000 C   0  0  0  0  0  0  0  0  0  0  0  0
  -27.6307    2.5270   -0.0000 C   0  0  0  0  0  0  0  0  0  0  0  0
  -23.7090    0.2742   -0.0000 C   0  0  0  0  0  0  0  0  0  0  0  0
  -17.2006    7.0328   -0.0000 C   0  0  0  0  0  0  0  0  0  0  0  0
   23.1726    4.7561   -0.0000 O   0  0  0  0  0  0  0  0  0  0  0  0
   24.4718    2.5032   -0.0000 N   0  0  0  0  0  0  0  0  0  0  0  0
   23.1726    0.2503   -0.0000 C   0  0  0  0  0  0  0  0  0  0  0  0
  -27.6426    1.0370   -0.0000 O   0  0  0  0  0  0  0  0  0  0  0  0
  -28.9419    3.2899   -0.0000 C   0  0  0  0  0  0  0  0  0  0  0  0
  -23.7209   -1.2158   -0.0000 C   0  0  0  0  0  0  0  0  0  0  0  0
   25.7592    3.2661   -0.0000 C   0  0  0  0  0  0  0  0  0  0  0  0
   23.1606   -1.2397   -0.0000 O   0  0  0  0  0  0  0  0  0  0  0  0
   24.4480    1.0132   -0.0000 O   0  0  0  0  0  0  0  0  0  0  0  0
  -30.2531    2.5509   -0.0000 N   0  0  0  0  0  0  0  0  0  0  0  0
  -28.9538    4.8157   -0.0000 C   0  0  0  0  0  0  0  0  0  0  0  0
  -22.4454   -1.9549   -0.0000 N   0  0  0  0  0  0  0  0  0  0  0  0
   27.0585    2.5151   -0.0000 C   0  0  0  0  0  0  0  0  0  0  0  0
   25.7473    4.7799   -0.0000 C   0  0  0  0  0  0  0  0  0  0  0  0
  -27.6545    5.5786   -0.0000 C   0  0  0  0  0  0  0  0  0  0  0  0
  -22.4574   -3.4568   -0.0000 C   0  0  0  0  0  0  0  0  0  0  0  0
   27.0466    1.0251   -0.0000 O   0  0  0  0  0  0  0  0  0  0  0  0
   28.3459    3.2780   -0.0000 N   0  0  0  0  0  0  0  0  0  0  0  0
   27.0466    5.5428   -0.0000 C   0  0  0  0  0  0  0  0  0  0  0  0
   24.4361    5.5428   -0.0000 C   0  0  0  0  0  0  0  0  0  0  0  0
  -27.6664    7.0924   -0.0000 O   0  0  0  0  0  0  0  0  0  0  0  0
  -26.3552    4.8395   -0.0000 N   0  0  0  0  0  0  0  0  0  0  0  0
  -21.1581   -4.1959   -0.0000 N   0  0  0  0  0  0  0  0  0  0  0  0
  -23.7686   -4.1959   -0.0000 N   0  0  0  0  0  0  0  0  0  0  0  0
   29.6332    2.5390   -0.0000 C   0  0  0  0  0  0  0  0  0  0  0  0
   30.9325    3.3019   -0.0000 C   0  0  0  0  0  0  0  0  0  0  0  0
   29.6213    1.0490   -0.0000 C   0  0  0  0  0  0  0  0  0  0  0  0
   30.9206    4.8157   -0.0000 O   0  0  0  0  0  0  0  0  0  0  0  0
   32.2318    2.5628   -0.0000 N   0  0  0  0  0  0  0  0  0  0  0  0
   30.9206    0.3099   -0.0000 C   0  0  0  0  0  0  0  0  0  0  0  0
   33.5191    3.3257   -0.0000 C   0  0  0  0  0  0  0  0  0  0  0  0
   30.9087   -1.1801   -0.0000 C   0  0  0  0  0  0  0  0  0  0  0  0
   34.8184    2.5866   -0.0000 C   0  0  0  0  0  0  0  0  0  0  0  0
   33.5072    4.8395   -0.0000 C   0  0  0  0  0  0  0  0  0  0  0  0
   32.1960   -1.9191   -0.0000 C   0  0  0  0  0  0  0  0  0  0  0  0
   34.8065    1.0966   -0.0000 O   0  0  0  0  0  0  0  0  0  0  0  0
   36.1058    3.3495   -0.0000 N   0  0  0  0  0  0  0  0  0  0  0  0
   32.1841   -3.4211   -0.0000 N   0  0  0  0  0  0  0  0  0  0  0  0
   37.4051    2.6105   -0.0000 C   0  0  0  0  0  0  0  0  0  0  0  0
   38.6924    3.3734   -0.0000 C   0  0  0  0  0  0  0  0  0  0  0  0
   37.3932    1.1205   -0.0000 C   0  0  0  0  0  0  0  0  0  0  0  0
   38.6805    4.8872   -0.0000 O   0  0  0  0  0  0  0  0  0  0  0  0
   39.9917    2.6343   -0.0000 N   0  0  0  0  0  0  0  0  0  0  0  0
   38.6805    0.3814   -0.0000 S   0  0  0  0  0  0  0  0  0  0  0  0
   41.2791    3.3972   -0.0000 C   0  0  0  0  0  0  0  0  0  0  0  0
   42.5784    2.6582   -0.0000 C   0  0  0  0  0  0  0  0  0  0  0  0
   41.2672    4.9111   -0.0000 C   0  0  0  0  0  0  0  0  0  0  0  0
   42.5665    1.1682   -0.0000 O   0  0  0  0  0  0  0  0  0  0  0  0
   43.8657    3.4211   -0.0000 N   0  0  0  0  0  0  0  0  0  0  0  0
   42.5665    5.6859   -0.0000 C   0  0  0  0  0  0  0  0  0  0  0  0
   45.1650    2.6820   -0.0000 C   0  0  0  0  0  0  0  0  0  0  0  0
   42.5545    7.1997   -0.0000 C   0  0  0  0  0  0  0  0  0  0  0  0
   46.4524    3.4449   -0.0000 C   0  0  0  0  0  0  0  0  0  0  0  0
   45.1531    1.1920   -0.0000 C   0  0  0  0  0  0  0  0  0  0  0  0
   43.8419    7.9626   -0.0000 O   0  0  0  0  0  0  0  0  0  0  0  0
   41.2433    7.9626   -0.0000 O   0  0  0  0  0  0  0  0  0  0  0  0
   46.4405    4.9587   -0.0000 O   0  0  0  0  0  0  0  0  0  0  0  0
   47.7517    2.7058   -0.0000 N   0  0  0  0  0  0  0  0  0  0  0  0
   46.4405    0.4530   -0.0000 C   0  0  0  0  0  0  0  0  0  0  0  0
   49.0390    3.4687   -0.0000 C   0  0  0  0  0  0  0  0  0  0  0  0
   46.5835   -1.0370   -0.0000 C   0  0  0  0  0  0  0  0  0  0  0  0
   47.8113    1.0728   -0.0000 C   0  0  0  0  0  0  0  0  0  0  0  0
   50.3264    2.7297   -0.0000 C   0  0  0  0  0  0  0  0  0  0  0  0
   49.0271    4.9826   -0.0000 C   0  0  0  0  0  0  0  0  0  0  0  0
   48.0497   -1.3350   -0.0000 C   0  0  0  0  0  0  0  0  0  0  0  0
   45.5703   -2.1456   -0.0000 C   0  0  0  0  0  0  0  0  0  0  0  0
   48.8006   -0.0358   -0.0000 N   0  0  0  0  0  0  0  0  0  0  0  0
   50.3145    1.2397   -0.0000 O   0  0  0  0  0  0  0  0  0  0  0  0
   51.6138    3.4926   -0.0000 N   0  0  0  0  0  0  0  0  0  0  0  0
   48.5026   -2.7535   -0.0000 C   0  0  0  0  0  0  0  0  0  0  0  0
   46.0233   -3.5641   -0.0000 C   0  0  0  0  0  0  0  0  0  0  0  0
   52.9011    2.7535   -0.0000 C   0  0  0  0  0  0  0  0  0  0  0  0
   47.4775   -3.8621   -0.0000 C   0  0  0  0  0  0  0  0  0  0  0  0
   54.1885    3.5164   -0.0000 C   0  0  0  0  0  0  0  0  0  0  0  0
   52.8892    1.2516   -0.0000 C   0  0  0  0  0  0  0  0  0  0  0  0
   54.1766    5.0303   -0.0000 O   0  0  0  0  0  0  0  0  0  0  0  0
   55.4759    2.7774   -0.0000 N   0  0  0  0  0  0  0  0  0  0  0  0
   54.1766    0.5126   -0.0000 S   0  0  0  0  0  0  0  0  0  0  0  0
   56.7632    3.5403   -0.0000 C   0  0  0  0  0  0  0  0  0  0  0  0
   58.0506    2.8012   -0.0000 C   0  0  0  0  0  0  0  0  0  0  0  0
   56.7513    5.0541   -0.0000 C   0  0  0  0  0  0  0  0  0  0  0  0
   58.0387    1.2993   -0.0000 O   0  0  0  0  0  0  0  0  0  0  0  0
   59.3380    3.5641   -0.0000 O   0  0  0  0  0  0  0  0  0  0  0  0
   58.0387    5.8170   -0.0000 C   0  0  0  0  0  0  0  0  0  0  0  0
   58.0267    7.3308   -0.0000 C   0  0  0  0  0  0  0  0  0  0  0  0
   59.3260    8.0937   -0.0000 O   0  0  0  0  0  0  0  0  0  0  0  0
   56.7155    8.0937   -0.0000 N   0  0  0  0  0  0  0  0  0  0  0  0
  1  2  1  0  0  0  0
  2  3  1  0  0  0  0
  3  4  1  6  0  0  0
  3  5  1  0  0  0  0
  4  6  1  0  0  0  0
  5  7  2  0  0  0  0
  5  8  1  0  0  0  0
  6  9  2  0  0  0  0
  6 10  1  0  0  0  0
 11  8  1  1  0  0  0
 10 12  1  1  0  0  0
 10 13  1  0  0  0  0
 11 14  1  0  0  0  0
 11 15  1  0  0  0  0
 12 16  1  0  0  0  0
 13 17  1  0  0  0  0
 14 18  2  0  0  0  0
 14 19  1  0  0  0  0
 15 20  1  0  0  0  0
 16 21  2  0  0  0  0
 16 22  1  0  0  0  0
 17 23  2  0  0  0  0
 17 24  1  0  0  0  0
 25 19  1  6  0  0  0
 20 26  2  0  0  0  0
 20 27  1  0  0  0  0
 22 28  1  6  0  0  0
 22 29  1  0  0  0  0
 23 30  1  0  0  0  0
 24 31  2  0  0  0  0
 25 32  1  0  0  0  0
 25 33  1  0  0  0  0
 26 34  1  0  0  0  0
 27 35  2  0  0  0  0
 28 36  1  0  0  0  0
 29 37  1  0  0  0  0
 30 38  2  0  0  0  0
 32 39  2  0  0  0  0
 32 40  1  0  0  0  0
 33 41  1  0  0  0  0
 34 42  2  0  0  0  0
 36 43  2  0  0  0  0
 36 44  1  0  0  0  0
 37 45  1  0  0  0  0
 37 46  1  0  0  0  0
 40 47  1  0  0  0  0
 41 48  1  0  0  0  0
 44 49  1  1  0  0  0
 44 50  1  0  0  0  0
 47 51  1  0  0  0  0
 48 52  2  0  0  0  0
 48 53  1  0  0  0  0
 49 54  1  0  0  0  0
 50 55  1  0  0  0  0
 51 56  2  0  0  0  0
 51 57  1  0  0  0  0
 54 58  2  0  0  0  0
 54 59  1  0  0  0  0
 55 60  1  0  0  0  0
 61 57  1  6  0  0  0
 59 62  1  6  0  0  0
 59 63  1  0  0  0  0
 60 64  2  0  0  0  0
 60 65  1  0  0  0  0
 61 66  1  0  0  0  0
 61 67  1  0  0  0  0
 62 68  1  0  0  0  0
 63 69  1  0  0  0  0
 66 70  2  0  0  0  0
 66 71  1  0  0  0  0
 67 72  1  6  0  0  0
 67 73  1  0  0  0  0
 68 74  2  0  0  0  0
 68 75  1  0  0  0  0
 71 76  1  0  0  0  0
 75 77  1  1  0  0  0
 75 78  1  0  0  0  0
 76 79  1  0  0  0  0
 77 80  1  0  0  0  0
 78 81  1  0  0  0  0
 79 82  2  0  0  0  0
 79 83  1  0  0  0  0
 80 84  2  0  0  0  0
 80 85  1  0  0  0  0
 81 86  2  0  0  0  0
 81 87  1  0  0  0  0
 88 83  1  6  0  0  0
 85 89  1  6  0  0  0
 85 90  1  0  0  0  0
 86 91  1  0  0  0  0
 87 92  2  0  0  0  0
 88 93  1  0  0  0  0
 88 94  1  0  0  0  0
 89 95  1  0  0  0  0
 90 96  1  0  0  0  0
 91 97  2  0  0  0  0
 93 98  2  0  0  0  0
 93 99  1  0  0  0  0
 94100  1  0  0  0  0
 95101  2  0  0  0  0
 95102  1  0  0  0  0
 96103  1  0  0  0  0
104 99  1  1  0  0  0
100105  2  0  0  0  0
100106  1  0  0  0  0
102107  1  1  0  0  0
102108  1  0  0  0  0
103109  1  0  0  0  0
104110  1  0  0  0  0
104111  1  0  0  0  0
108112  1  0  0  0  0
109113  1  0  0  0  0
110114  2  0  0  0  0
110115  1  0  0  0  0
111116  1  0  0  0  0
111117  1  0  0  0  0
112118  2  0  0  0  0
112119  1  0  0  0  0
113120  2  0  0  0  0
113121  1  0  0  0  0
122115  1  6  0  0  0
122123  1  0  0  0  0
122124  1  0  0  0  0
123125  2  0  0  0  0
123126  1  0  0  0  0
124127  1  0  0  0  0
128126  1  1  0  0  0
127129  1  0  0  0  0
128130  1  0  0  0  0
128131  1  0  0  0  0
129132  1  0  0  0  0
130133  2  0  0  0  0
130134  1  0  0  0  0
132135  1  0  0  0  0
136134  1  6  0  0  0
136137  1  0  0  0  0
136138  1  0  0  0  0
137139  2  0  0  0  0
137140  1  0  0  0  0
138141  1  0  0  0  0
142140  1  1  0  0  0
142143  1  0  0  0  0
142144  1  0  0  0  0
143145  2  0  0  0  0
143146  1  0  0  0  0
144147  1  0  0  0  0
148146  1  6  0  0  0
147149  1  0  0  0  0
148150  1  0  0  0  0
148151  1  0  0  0  0
149152  2  0  0  0  0
149153  1  0  0  0  0
150154  2  0  0  0  0
150155  1  0  0  0  0
151156  1  0  0  0  0
157155  1  1  0  0  0
156158  1  0  0  0  0
156159  2  0  0  0  0
157160  1  0  0  0  0
157161  1  0  0  0  0
158162  2  0  0  0  0
158163  1  0  0  0  0
159164  1  0  0  0  0
160165  2  0  0  0  0
160166  1  0  0  0  0
162167  1  0  0  0  0
163168  2  0  0  0  0
169166  1  6  0  0  0
167170  2  0  0  0  0
169171  1  0  0  0  0
169172  1  0  0  0  0
171173  2  0  0  0  0
171174  1  0  0  0  0
172175  1  0  0  0  0
176174  1  1  0  0  0
176177  1  0  0  0  0
176178  1  0  0  0  0
177179  2  0  0  0  0
177180  1  0  0  0  0
178181  1  0  0  0  0
181182  1  0  0  0  0
182183  2  0  0  0  0
182184  1  0  0  0  0
 31 38  1  0  0  0  0
 35 42  1  0  0  0  0
 92 97  1  0  0  0  0
162164  1  0  0  0  0
168170  1  0  0  0  0
M  END
>  <MolRegNo>
1625080

>  <m>
=

>  <Value>
3600

>  <Unit>
nM

>  <Type>
Ki

>  <pValue>
5.44

>  <Ligand Efficiency>
0

>  <Binding Efficiency>
2.05

>  <Surface Efficiency>
0

>  <Assay Index>
831551

>  <Assay Category>


>  <Assay Organism>
Homo sapiens

>  <Target ID>
56

>  <Target Name>
Androgen Receptor

>  <Target Organism>
Homo sapiens

>  <Target Description>
Target is a single protein chain

>  <Sequence Accession>
P10275

>  <Reference>
Medchemcomm 4 (1), 187-192 (2013)

>  <Pubmed ID>


>  <DOI>
10.1039/C2MD20182H

$$$$
1625079
Actelion Java MolfileCreator 1.0

181184  0  0  0  0  0  0  0  0999 V2000
    0.0000   -0.0000   -0.0000 S   0  0  0  0  0  0  0  0  0  0  0  0
   -0.0119    1.5144   -0.0000 C   0  0  0  0  0  0  0  0  0  0  0  0
    1.2878   -0.7393   -0.0000 C   0  0  0  0  0  0  0  0  0  0  0  0
   -1.3236    2.2775   -0.0000 C   0  0  0  0  0  0  0  0  0  0  0  0
   -1.3355    3.7919   -0.0000 C   0  0  0  0  0  0  0  0  0  0  0  0
   -2.6472    4.5550   -0.0000 N   0  0  0  0  0  0  0  0  0  0  0  0
   -0.0477    4.5550   -0.0000 C   0  0  0  0  0  0  0  0  0  0  0  0
   -3.9588    3.8157   -0.0000 C   0  0  0  0  0  0  0  0  0  0  0  0
   -0.0596    6.0694   -0.0000 O   0  0  0  0  0  0  0  0  0  0  0  0
    1.2520    3.8157   -0.0000 N   0  0  0  0  0  0  0  0  0  0  0  0
   -3.9707    2.3252   -0.0000 O   0  0  0  0  0  0  0  0  0  0  0  0
   -5.2705    4.5789   -0.0000 C   0  0  0  0  0  0  0  0  0  0  0  0
    2.5398    4.5789   -0.0000 C   0  0  0  0  0  0  0  0  0  0  0  0
   -6.5821    3.8396   -0.0000 N   0  0  0  0  0  0  0  0  0  0  0  0
   -5.2824    6.0932   -0.0000 C   0  0  0  0  0  0  0  0  0  0  0  0
    3.8277    3.8396   -0.0000 C   0  0  0  0  0  0  0  0  0  0  0  0
    2.5279    6.0932   -0.0000 C   0  0  0  0  0  0  0  0  0  0  0  0
   -7.8938    4.6027   -0.0000 C   0  0  0  0  0  0  0  0  0  0  0  0
   -3.9946    6.8564   -0.0000 C   0  0  0  0  0  0  0  0  0  0  0  0
    3.8157    2.3371   -0.0000 O   0  0  0  0  0  0  0  0  0  0  0  0
    5.1155    4.6027   -0.0000 N   0  0  0  0  0  0  0  0  0  0  0  0
    3.8157    6.8683   -0.0000 C   0  0  0  0  0  0  0  0  0  0  0  0
   -7.9057    6.1171   -0.0000 O   0  0  0  0  0  0  0  0  0  0  0  0
   -9.1935    3.8634   -0.0000 C   0  0  0  0  0  0  0  0  0  0  0  0
   -4.0065    8.3708   -0.0000 C   0  0  0  0  0  0  0  0  0  0  0  0
    6.4033    3.8634   -0.0000 C   0  0  0  0  0  0  0  0  0  0  0  0
    5.1035    6.1171   -0.0000 C   0  0  0  0  0  0  0  0  0  0  0  0
    3.8038    8.3827   -0.0000 C   0  0  0  0  0  0  0  0  0  0  0  0
  -10.5290    4.6266   -0.0000 N   0  0  0  0  0  0  0  0  0  0  0  0
   -9.2055    2.3729   -0.0000 C   0  0  0  0  0  0  0  0  0  0  0  0
   -2.7187    9.1458   -0.0000 O   0  0  0  0  0  0  0  0  0  0  0  0
   -5.3182    9.1339   -0.0000 O   0  0  0  0  0  0  0  0  0  0  0  0
    7.6911    4.6266   -0.0000 C   0  0  0  0  0  0  0  0  0  0  0  0
    6.3914    2.3610   -0.0000 C   0  0  0  0  0  0  0  0  0  0  0  0
    6.3914    6.8802   -0.0000 C   0  0  0  0  0  0  0  0  0  0  0  0
    5.0797    9.1458   -0.0000 C   0  0  0  0  0  0  0  0  0  0  0  0
  -11.8288    3.8873   -0.0000 C   0  0  0  0  0  0  0  0  0  0  0  0
   -7.9296    1.6336   -0.0000 S   0  0  0  0  0  0  0  0  0  0  0  0
    7.6792    6.1409   -0.0000 O   0  0  0  0  0  0  0  0  0  0  0  0
    8.9789    3.8873   -0.0000 N   0  0  0  0  0  0  0  0  0  0  0  0
    7.6792    1.6217   -0.0000 S   0  0  0  0  0  0  0  0  0  0  0  0
    6.3794    8.3946   -0.0000 C   0  0  0  0  0  0  0  0  0  0  0  0
  -11.8407    2.3968   -0.0000 O   0  0  0  0  0  0  0  0  0  0  0  0
  -13.1404    4.6504   -0.0000 C   0  0  0  0  0  0  0  0  0  0  0  0
   10.2667    4.6504   -0.0000 C   0  0  0  0  0  0  0  0  0  0  0  0
  -14.4521    3.9111   -0.0000 N   0  0  0  0  0  0  0  0  0  0  0  0
  -13.1524    6.1648   -0.0000 C   0  0  0  0  0  0  0  0  0  0  0  0
   11.5545    3.9111   -0.0000 C   0  0  0  0  0  0  0  0  0  0  0  0
   10.2548    6.1648   -0.0000 C   0  0  0  0  0  0  0  0  0  0  0  0
  -15.7757    4.6743   -0.0000 C   0  0  0  0  0  0  0  0  0  0  0  0
  -11.8645    6.9279   -0.0000 C   0  0  0  0  0  0  0  0  0  0  0  0
   11.5426    2.4206   -0.0000 O   0  0  0  0  0  0  0  0  0  0  0  0
   12.8423    4.6743   -0.0000 N   0  0  0  0  0  0  0  0  0  0  0  0
    8.9431    6.9279   -0.0000 C   0  0  0  0  0  0  0  0  0  0  0  0
   11.5426    6.9279   -0.0000 C   0  0  0  0  0  0  0  0  0  0  0  0
  -15.7876    6.2006   -0.0000 O   0  0  0  0  0  0  0  0  0  0  0  0
  -17.0993    3.9350   -0.0000 C   0  0  0  0  0  0  0  0  0  0  0  0
  -10.6006    6.1886   -0.0000 C   0  0  0  0  0  0  0  0  0  0  0  0
  -11.8765    8.4423   -0.0000 C   0  0  0  0  0  0  0  0  0  0  0  0
   14.1421    3.9230   -0.0000 C   0  0  0  0  0  0  0  0  0  0  0  0
    8.9312    8.4423   -0.0000 C   0  0  0  0  0  0  0  0  0  0  0  0
  -18.4109    4.6981   -0.0000 N   0  0  0  0  0  0  0  0  0  0  0  0
  -17.1112    2.4445   -0.0000 C   0  0  0  0  0  0  0  0  0  0  0  0
   -9.3008    6.9518   -0.0000 C   0  0  0  0  0  0  0  0  0  0  0  0
  -10.6006    9.2055   -0.0000 C   0  0  0  0  0  0  0  0  0  0  0  0
   15.4299    4.6862   -0.0000 C   0  0  0  0  0  0  0  0  0  0  0  0
   14.1301    2.4325   -0.0000 C   0  0  0  0  0  0  0  0  0  0  0  0
  -19.7345    3.9588   -0.0000 C   0  0  0  0  0  0  0  0  0  0  0  0
  -15.8114    1.7052   -0.0000 C   0  0  0  0  0  0  0  0  0  0  0  0
   -9.3128    8.4662   -0.0000 C   0  0  0  0  0  0  0  0  0  0  0  0
   15.4179    6.2006   -0.0000 O   0  0  0  0  0  0  0  0  0  0  0  0
   16.7296    3.9350   -0.0000 N   0  0  0  0  0  0  0  0  0  0  0  0
   15.4179    1.6932   -0.0000 C   0  0  0  0  0  0  0  0  0  0  0  0
  -19.7464    2.4683   -0.0000 O   0  0  0  0  0  0  0  0  0  0  0  0
  -21.0461    4.7220   -0.0000 C   0  0  0  0  0  0  0  0  0  0  0  0
  -15.8234    0.2146   -0.0000 C   0  0  0  0  0  0  0  0  0  0  0  0
   18.0174    4.6981   -0.0000 C   0  0  0  0  0  0  0  0  0  0  0  0
   15.4060    0.2027   -0.0000 C   0  0  0  0  0  0  0  0  0  0  0  0
  -22.3578    3.9827   -0.0000 N   0  0  0  0  0  0  0  0  0  0  0  0
  -21.0581    6.2483   -0.0000 C   0  0  0  0  0  0  0  0  0  0  0  0
  -14.5475   -0.5247   -0.0000 N   0  0  0  0  0  0  0  0  0  0  0  0
   19.3171    3.9588   -0.0000 C   0  0  0  0  0  0  0  0  0  0  0  0
   16.6938   -0.5366   -0.0000 O   0  0  0  0  0  0  0  0  0  0  0  0
   14.0824   -0.5366   -0.0000 N   0  0  0  0  0  0  0  0  0  0  0  0
  -19.7583    7.0114   -0.0000 C   0  0  0  0  0  0  0  0  0  0  0  0
  -14.5594   -2.0271   -0.0000 C   0  0  0  0  0  0  0  0  0  0  0  0
   19.3052    2.4683   -0.0000 O   0  0  0  0  0  0  0  0  0  0  0  0
   20.6050    4.7220   -0.0000 N   0  0  0  0  0  0  0  0  0  0  0  0
  -19.7703    8.5258   -0.0000 O   0  0  0  0  0  0  0  0  0  0  0  0
  -18.4586    6.2721   -0.0000 N   0  0  0  0  0  0  0  0  0  0  0  0
  -13.2597   -2.7664   -0.0000 N   0  0  0  0  0  0  0  0  0  0  0  0
  -15.8711   -2.7664   -0.0000 N   0  0  0  0  0  0  0  0  0  0  0  0
   21.9047    3.9827   -0.0000 C   0  0  0  0  0  0  0  0  0  0  0  0
   23.1925    4.7458   -0.0000 C   0  0  0  0  0  0  0  0  0  0  0  0
   21.8928    2.4922   -0.0000 C   0  0  0  0  0  0  0  0  0  0  0  0
   23.1806    6.2602   -0.0000 O   0  0  0  0  0  0  0  0  0  0  0  0
   24.4922    4.0065   -0.0000 N   0  0  0  0  0  0  0  0  0  0  0  0
   23.1806    1.7529   -0.0000 O   0  0  0  0  0  0  0  0  0  0  0  0
   20.5692    1.7529   -0.0000 C   0  0  0  0  0  0  0  0  0  0  0  0
   25.7800    4.7697   -0.0000 C   0  0  0  0  0  0  0  0  0  0  0  0
   27.0798    4.0304   -0.0000 C   0  0  0  0  0  0  0  0  0  0  0  0
   27.0679    2.5398   -0.0000 O   0  0  0  0  0  0  0  0  0  0  0  0
   28.3676    4.7935   -0.0000 N   0  0  0  0  0  0  0  0  0  0  0  0
   29.6554    4.0542   -0.0000 C   0  0  0  0  0  0  0  0  0  0  0  0
   30.9432    4.8174   -0.0000 C   0  0  0  0  0  0  0  0  0  0  0  0
   29.6435    2.5637   -0.0000 C   0  0  0  0  0  0  0  0  0  0  0  0
   30.9313    6.3317   -0.0000 O   0  0  0  0  0  0  0  0  0  0  0  0
   32.2310    4.0661   -0.0000 N   0  0  0  0  0  0  0  0  0  0  0  0
   30.9313    1.8244   -0.0000 C   0  0  0  0  0  0  0  0  0  0  0  0
   33.5188    4.8293   -0.0000 C   0  0  0  0  0  0  0  0  0  0  0  0
   30.9194    0.3339   -0.0000 O   0  0  0  0  0  0  0  0  0  0  0  0
   32.2191    2.5875   -0.0000 O   0  0  0  0  0  0  0  0  0  0  0  0
   34.8066    4.0781   -0.0000 C   0  0  0  0  0  0  0  0  0  0  0  0
   33.5069    6.3437   -0.0000 C   0  0  0  0  0  0  0  0  0  0  0  0
   34.7947    2.5875   -0.0000 O   0  0  0  0  0  0  0  0  0  0  0  0
   36.0944    4.8412   -0.0000 N   0  0  0  0  0  0  0  0  0  0  0  0
   34.7947    7.1068   -0.0000 C   0  0  0  0  0  0  0  0  0  0  0  0
   32.1952    7.1068   -0.0000 C   0  0  0  0  0  0  0  0  0  0  0  0
   37.3823    4.1019   -0.0000 C   0  0  0  0  0  0  0  0  0  0  0  0
   38.6701    4.8651   -0.0000 C   0  0  0  0  0  0  0  0  0  0  0  0
   37.3703    2.6114   -0.0000 C   0  0  0  0  0  0  0  0  0  0  0  0
   38.6581    6.3794   -0.0000 O   0  0  0  0  0  0  0  0  0  0  0  0
   39.9579    4.1258   -0.0000 N   0  0  0  0  0  0  0  0  0  0  0  0
   38.6581    1.8721   -0.0000 C   0  0  0  0  0  0  0  0  0  0  0  0
   41.2457    4.8889   -0.0000 C   0  0  0  0  0  0  0  0  0  0  0  0
   38.6462    0.3816   -0.0000 C   0  0  0  0  0  0  0  0  0  0  0  0
   42.5454    4.1496   -0.0000 C   0  0  0  0  0  0  0  0  0  0  0  0
   41.2338    6.4033   -0.0000 C   0  0  0  0  0  0  0  0  0  0  0  0
   39.9340   -0.3577   -0.0000 C   0  0  0  0  0  0  0  0  0  0  0  0
   42.5335    2.6591   -0.0000 O   0  0  0  0  0  0  0  0  0  0  0  0
   43.8332    4.9128   -0.0000 N   0  0  0  0  0  0  0  0  0  0  0  0
   39.9221   -1.8602   -0.0000 N   0  0  0  0  0  0  0  0  0  0  0  0
   45.1330    4.1735   -0.0000 C   0  0  0  0  0  0  0  0  0  0  0  0
   46.4208    4.9366   -0.0000 C   0  0  0  0  0  0  0  0  0  0  0  0
   45.1210    2.6829   -0.0000 C   0  0  0  0  0  0  0  0  0  0  0  0
   46.4088    6.4510   -0.0000 O   0  0  0  0  0  0  0  0  0  0  0  0
   47.7205    4.1973   -0.0000 N   0  0  0  0  0  0  0  0  0  0  0  0
   46.4088    1.9436   -0.0000 S   0  0  0  0  0  0  0  0  0  0  0  0
   49.0083    4.9605   -0.0000 C   0  0  0  0  0  0  0  0  0  0  0  0
   50.3080    4.2212   -0.0000 C   0  0  0  0  0  0  0  0  0  0  0  0
   48.9964    6.4748   -0.0000 C   0  0  0  0  0  0  0  0  0  0  0  0
   50.2961    2.7306   -0.0000 O   0  0  0  0  0  0  0  0  0  0  0  0
   51.5959    4.9843   -0.0000 N   0  0  0  0  0  0  0  0  0  0  0  0
   50.2961    7.2499   -0.0000 C   0  0  0  0  0  0  0  0  0  0  0  0
   52.8956    4.2450   -0.0000 C   0  0  0  0  0  0  0  0  0  0  0  0
   50.2842    8.7643   -0.0000 C   0  0  0  0  0  0  0  0  0  0  0  0
   54.1834    5.0081   -0.0000 C   0  0  0  0  0  0  0  0  0  0  0  0
   52.8837    2.7545   -0.0000 C   0  0  0  0  0  0  0  0  0  0  0  0
   51.5720    9.5274   -0.0000 O   0  0  0  0  0  0  0  0  0  0  0  0
   48.9725    9.5274   -0.0000 O   0  0  0  0  0  0  0  0  0  0  0  0
   54.1715    6.5225   -0.0000 O   0  0  0  0  0  0  0  0  0  0  0  0
   55.4831    4.2689   -0.0000 N   0  0  0  0  0  0  0  0  0  0  0  0
   54.1715    2.0152   -0.0000 C   0  0  0  0  0  0  0  0  0  0  0  0
   56.7709    5.0320   -0.0000 C   0  0  0  0  0  0  0  0  0  0  0  0
   54.3146    0.5247   -0.0000 C   0  0  0  0  0  0  0  0  0  0  0  0
   55.5428    2.6352   -0.0000 C   0  0  0  0  0  0  0  0  0  0  0  0
   58.0588    4.2927   -0.0000 C   0  0  0  0  0  0  0  0  0  0  0  0
   56.7590    6.5464   -0.0000 C   0  0  0  0  0  0  0  0  0  0  0  0
   55.7812    0.2266   -0.0000 C   0  0  0  0  0  0  0  0  0  0  0  0
   53.3010   -0.5843   -0.0000 C   0  0  0  0  0  0  0  0  0  0  0  0
   56.5325    1.5263   -0.0000 N   0  0  0  0  0  0  0  0  0  0  0  0
   58.0468    2.8022   -0.0000 O   0  0  0  0  0  0  0  0  0  0  0  0
   59.3466    5.0558   -0.0000 N   0  0  0  0  0  0  0  0  0  0  0  0
   56.2344   -1.1924   -0.0000 C   0  0  0  0  0  0  0  0  0  0  0  0
   53.7541   -2.0033   -0.0000 C   0  0  0  0  0  0  0  0  0  0  0  0
   60.6344    4.3165   -0.0000 C   0  0  0  0  0  0  0  0  0  0  0  0
   55.2089   -2.3014   -0.0000 C   0  0  0  0  0  0  0  0  0  0  0  0
   61.9222    5.0797   -0.0000 C   0  0  0  0  0  0  0  0  0  0  0  0
   60.6224    2.8141   -0.0000 C   0  0  0  0  0  0  0  0  0  0  0  0
   61.9103    6.5941   -0.0000 O   0  0  0  0  0  0  0  0  0  0  0  0
   63.2100    4.3404   -0.0000 N   0  0  0  0  0  0  0  0  0  0  0  0
   61.9103    2.0748   -0.0000 S   0  0  0  0  0  0  0  0  0  0  0  0
   64.4978    5.1035   -0.0000 C   0  0  0  0  0  0  0  0  0  0  0  0
   65.7856    4.3642   -0.0000 C   0  0  0  0  0  0  0  0  0  0  0  0
   64.4859    6.6179   -0.0000 C   0  0  0  0  0  0  0  0  0  0  0  0
   65.7737    2.8618   -0.0000 O   0  0  0  0  0  0  0  0  0  0  0  0
   67.0734    5.1274   -0.0000 O   0  0  0  0  0  0  0  0  0  0  0  0
   65.7737    7.3811   -0.0000 C   0  0  0  0  0  0  0  0  0  0  0  0
   65.7618    8.8954   -0.0000 C   0  0  0  0  0  0  0  0  0  0  0  0
   67.0615    9.6586   -0.0000 O   0  0  0  0  0  0  0  0  0  0  0  0
   64.4501    9.6586   -0.0000 N   0  0  0  0  0  0  0  0  0  0  0  0
  1  2  1  0  0  0  0
  1  3  1  0  0  0  0
  2  4  1  0  0  0  0
  4  5  1  0  0  0  0
  5  6  1  6  0  0  0
  5  7  1  0  0  0  0
  6  8  1  0  0  0  0
  7  9  2  0  0  0  0
  7 10  1  0  0  0  0
  8 11  2  0  0  0  0
  8 12  1  0  0  0  0
 13 10  1  1  0  0  0
 12 14  1  1  0  0  0
 12 15  1  0  0  0  0
 13 16  1  0  0  0  0
 13 17  1  0  0  0  0
 14 18  1  0  0  0  0
 15 19  1  0  0  0  0
 16 20  2  0  0  0  0
 16 21  1  0  0  0  0
 17 22  1  0  0  0  0
 18 23  2  0  0  0  0
 18 24  1  0  0  0  0
 19 25  1  0  0  0  0
 26 21  1  6  0  0  0
 22 27  2  0  0  0  0
 22 28  1  0  0  0  0
 24 29  1  6  0  0  0
 24 30  1  0  0  0  0
 25 31  2  0  0  0  0
 25 32  1  0  0  0  0
 26 33  1  0  0  0  0
 26 34  1  0  0  0  0
 27 35  1  0  0  0  0
 28 36  2  0  0  0  0
 29 37  1  0  0  0  0
 30 38  1  0  0  0  0
 33 39  2  0  0  0  0
 33 40  1  0  0  0  0
 34 41  1  0  0  0  0
 35 42  2  0  0  0  0
 37 43  2  0  0  0  0
 37 44  1  0  0  0  0
 45 40  1  1  0  0  0
 44 46  1  1  0  0  0
 44 47  1  0  0  0  0
 45 48  1  0  0  0  0
 45 49  1  0  0  0  0
 46 50  1  0  0  0  0
 47 51  1  0  0  0  0
 48 52  2  0  0  0  0
 48 53  1  0  0  0  0
 49 54  1  0  0  0  0
 49 55  1  6  0  0  0
 50 56  2  0  0  0  0
 50 57  1  0  0  0  0
 51 58  2  0  0  0  0
 51 59  1  0  0  0  0
 60 53  1  6  0  0  0
 54 61  1  0  0  0  0
 57 62  1  6  0  0  0
 57 63  1  0  0  0  0
 58 64  1  0  0  0  0
 59 65  2  0  0  0  0
 60 66  1  0  0  0  0
 60 67  1  0  0  0  0
 62 68  1  0  0  0  0
 63 69  1  0  0  0  0
 64 70  2  0  0  0  0
 66 71  2  0  0  0  0
 66 72  1  0  0  0  0
 67 73  1  0  0  0  0
 68 74  2  0  0  0  0
 68 75  1  0  0  0  0
 69 76  1  0  0  0  0
 72 77  1  0  0  0  0
 73 78  1  0  0  0  0
 75 79  1  1  0  0  0
 75 80  1  0  0  0  0
 76 81  1  0  0  0  0
 77 82  1  0  0  0  0
 78 83  2  0  0  0  0
 78 84  1  0  0  0  0
 80 85  1  0  0  0  0
 81 86  1  0  0  0  0
 82 87  2  0  0  0  0
 82 88  1  0  0  0  0
 85 89  2  0  0  0  0
 85 90  1  0  0  0  0
 86 91  2  0  0  0  0
 86 92  1  0  0  0  0
 93 88  1  6  0  0  0
 93 94  1  0  0  0  0
 93 95  1  0  0  0  0
 94 96  2  0  0  0  0
 94 97  1  0  0  0  0
 95 98  1  6  0  0  0
 95 99  1  0  0  0  0
 97100  1  0  0  0  0
100101  1  0  0  0  0
101102  2  0  0  0  0
101103  1  0  0  0  0
104103  1  6  0  0  0
104105  1  0  0  0  0
104106  1  0  0  0  0
105107  2  0  0  0  0
105108  1  0  0  0  0
106109  1  0  0  0  0
110108  1  1  0  0  0
109111  2  0  0  0  0
109112  1  0  0  0  0
110113  1  0  0  0  0
110114  1  0  0  0  0
113115  2  0  0  0  0
113116  1  0  0  0  0
114117  1  0  0  0  0
114118  1  0  0  0  0
119116  1  6  0  0  0
119120  1  0  0  0  0
119121  1  0  0  0  0
120122  2  0  0  0  0
120123  1  0  0  0  0
121124  1  0  0  0  0
125123  1  1  0  0  0
124126  1  0  0  0  0
125127  1  0  0  0  0
125128  1  0  0  0  0
126129  1  0  0  0  0
127130  2  0  0  0  0
127131  1  0  0  0  0
129132  1  0  0  0  0
133131  1  6  0  0  0
133134  1  0  0  0  0
133135  1  0  0  0  0
134136  2  0  0  0  0
134137  1  0  0  0  0
135138  1  0  0  0  0
139137  1  1  0  0  0
139140  1  0  0  0  0
139141  1  0  0  0  0
140142  2  0  0  0  0
140143  1  0  0  0  0
141144  1  0  0  0  0
145143  1  6  0  0  0
144146  1  0  0  0  0
145147  1  0  0  0  0
145148  1  0  0  0  0
146149  2  0  0  0  0
146150  1  0  0  0  0
147151  2  0  0  0  0
147152  1  0  0  0  0
148153  1  0  0  0  0
154152  1  1  0  0  0
153155  1  0  0  0  0
153156  2  0  0  0  0
154157  1  0  0  0  0
154158  1  0  0  0  0
155159  2  0  0  0  0
155160  1  0  0  0  0
156161  1  0  0  0  0
157162  2  0  0  0  0
157163  1  0  0  0  0
159164  1  0  0  0  0
160165  2  0  0  0  0
166163  1  6  0  0  0
164167  2  0  0  0  0
166168  1  0  0  0  0
166169  1  0  0  0  0
168170  2  0  0  0  0
168171  1  0  0  0  0
169172  1  0  0  0  0
173171  1  1  0  0  0
173174  1  0  0  0  0
173175  1  0  0  0  0
174176  2  0  0  0  0
174177  1  0  0  0  0
175178  1  0  0  0  0
178179  1  0  0  0  0
179180  2  0  0  0  0
179181  1  0  0  0  0
 36 42  1  0  0  0  0
 65 70  1  0  0  0  0
159161  1  0  0  0  0
165167  1  0  0  0  0
M  END
>  <MolRegNo>
1625079

>  <m>
=

>  <Value>
4100

>  <Unit>
nM

>  <Type>
Ki

>  <pValue>
5.39

>  <Ligand Efficiency>
0

>  <Binding Efficiency>
2.04

>  <Surface Efficiency>
0

>  <Assay Index>
831551

>  <Assay Category>


>  <Assay Organism>
Homo sapiens

>  <Target ID>
56

>  <Target Name>
Androgen Receptor

>  <Target Organism>
Homo sapiens

>  <Target Description>
Target is a single protein chain

>  <Sequence Accession>
P10275

>  <Reference>
Medchemcomm 4 (1), 187-192 (2013)

>  <Pubmed ID>


>  <DOI>
10.1039/C2MD20182H

$$$$
1625078
Actelion Java MolfileCreator 1.0

181184  0  0  0  0  0  0  0  0999 V2000
    0.0000   -0.0000   -0.0000 S   0  0  0  0  0  0  0  0  0  0  0  0
   -1.3111    0.7628   -0.0000 C   0  0  0  0  0  0  0  0  0  0  0  0
   -1.3230    2.2766   -0.0000 C   0  0  0  0  0  0  0  0  0  0  0  0
   -2.6461    3.0394   -0.0000 N   0  0  0  0  0  0  0  0  0  0  0  0
   -0.0358    3.0394   -0.0000 C   0  0  0  0  0  0  0  0  0  0  0  0
   -3.9691    2.3004   -0.0000 C   0  0  0  0  0  0  0  0  0  0  0  0
   -0.0477    4.5532   -0.0000 O   0  0  0  0  0  0  0  0  0  0  0  0
    1.2515    2.2885   -0.0000 N   0  0  0  0  0  0  0  0  0  0  0  0
   -3.9811    0.8105   -0.0000 O   0  0  0  0  0  0  0  0  0  0  0  0
   -5.2803    3.0633   -0.0000 C   0  0  0  0  0  0  0  0  0  0  0  0
    2.5388    3.0514   -0.0000 C   0  0  0  0  0  0  0  0  0  0  0  0
   -6.5914    2.3243   -0.0000 N   0  0  0  0  0  0  0  0  0  0  0  0
   -5.2922    4.5770   -0.0000 C   0  0  0  0  0  0  0  0  0  0  0  0
    3.8261    2.3124   -0.0000 C   0  0  0  0  0  0  0  0  0  0  0  0
    2.5269    4.5770   -0.0000 C   0  0  0  0  0  0  0  0  0  0  0  0
   -7.9264    3.0871   -0.0000 C   0  0  0  0  0  0  0  0  0  0  0  0
   -4.0049    5.3399   -0.0000 C   0  0  0  0  0  0  0  0  0  0  0  0
    3.8142    0.8224   -0.0000 O   0  0  0  0  0  0  0  0  0  0  0  0
    5.1134    3.0752   -0.0000 N   0  0  0  0  0  0  0  0  0  0  0  0
    1.2158    5.3399   -0.0000 C   0  0  0  0  0  0  0  0  0  0  0  0
    3.8142    5.3399   -0.0000 C   0  0  0  0  0  0  0  0  0  0  0  0
   -7.9383    4.6009   -0.0000 O   0  0  0  0  0  0  0  0  0  0  0  0
   -9.2256    2.3481   -0.0000 C   0  0  0  0  0  0  0  0  0  0  0  0
   -2.7176    4.6009   -0.0000 C   0  0  0  0  0  0  0  0  0  0  0  0
   -4.0168    6.8536   -0.0000 C   0  0  0  0  0  0  0  0  0  0  0  0
    6.4126    2.3362   -0.0000 C   0  0  0  0  0  0  0  0  0  0  0  0
    1.2039    6.8536   -0.0000 C   0  0  0  0  0  0  0  0  0  0  0  0
  -10.5367    3.1110   -0.0000 N   0  0  0  0  0  0  0  0  0  0  0  0
   -9.2375    0.8582   -0.0000 C   0  0  0  0  0  0  0  0  0  0  0  0
   -1.4184    5.3637   -0.0000 C   0  0  0  0  0  0  0  0  0  0  0  0
   -2.7415    7.6165   -0.0000 C   0  0  0  0  0  0  0  0  0  0  0  0
    7.6999    3.0990   -0.0000 C   0  0  0  0  0  0  0  0  0  0  0  0
    6.4007    0.8463   -0.0000 C   0  0  0  0  0  0  0  0  0  0  0  0
  -11.8478    2.3720   -0.0000 C   0  0  0  0  0  0  0  0  0  0  0  0
   -7.9621    0.1192   -0.0000 C   0  0  0  0  0  0  0  0  0  0  0  0
   -1.4303    6.8775   -0.0000 C   0  0  0  0  0  0  0  0  0  0  0  0
    7.6880    4.6128   -0.0000 O   0  0  0  0  0  0  0  0  0  0  0  0
    8.9991    2.3600   -0.0000 N   0  0  0  0  0  0  0  0  0  0  0  0
    7.6880    0.1073   -0.0000 C   0  0  0  0  0  0  0  0  0  0  0  0
  -11.8598    0.8820   -0.0000 O   0  0  0  0  0  0  0  0  0  0  0  0
  -13.1590    3.1467   -0.0000 C   0  0  0  0  0  0  0  0  0  0  0  0
   -7.9741   -1.3707   -0.0000 C   0  0  0  0  0  0  0  0  0  0  0  0
   -6.6629    0.8820   -0.0000 C   0  0  0  0  0  0  0  0  0  0  0  0
   10.2864    3.1229   -0.0000 C   0  0  0  0  0  0  0  0  0  0  0  0
    7.6761   -1.3826   -0.0000 C   0  0  0  0  0  0  0  0  0  0  0  0
  -14.4701    2.4077   -0.0000 N   0  0  0  0  0  0  0  0  0  0  0  0
  -13.1709    4.6605   -0.0000 C   0  0  0  0  0  0  0  0  0  0  0  0
   11.5856    2.3839   -0.0000 C   0  0  0  0  0  0  0  0  0  0  0  0
    8.9634   -2.1216   -0.0000 O   0  0  0  0  0  0  0  0  0  0  0  0
    6.3530   -2.1216   -0.0000 N   0  0  0  0  0  0  0  0  0  0  0  0
  -15.7812    3.1825   -0.0000 C   0  0  0  0  0  0  0  0  0  0  0  0
  -11.8836    5.4233   -0.0000 C   0  0  0  0  0  0  0  0  0  0  0  0
   11.5737    0.8940   -0.0000 O   0  0  0  0  0  0  0  0  0  0  0  0
   12.8729    3.1467   -0.0000 N   0  0  0  0  0  0  0  0  0  0  0  0
  -15.7931    4.6962   -0.0000 O   0  0  0  0  0  0  0  0  0  0  0  0
  -17.0804    2.4435   -0.0000 C   0  0  0  0  0  0  0  0  0  0  0  0
  -11.8955    6.9371   -0.0000 C   0  0  0  0  0  0  0  0  0  0  0  0
   14.1721    2.4077   -0.0000 C   0  0  0  0  0  0  0  0  0  0  0  0
  -18.4154    3.2182   -0.0000 N   0  0  0  0  0  0  0  0  0  0  0  0
  -17.0924    0.9535   -0.0000 C   0  0  0  0  0  0  0  0  0  0  0  0
  -10.6082    7.6999   -0.0000 C   0  0  0  0  0  0  0  0  0  0  0  0
   15.4594    3.1705   -0.0000 C   0  0  0  0  0  0  0  0  0  0  0  0
   14.1602    0.9178   -0.0000 C   0  0  0  0  0  0  0  0  0  0  0  0
  -19.7146    2.4792   -0.0000 C   0  0  0  0  0  0  0  0  0  0  0  0
  -15.8170    0.2145   -0.0000 S   0  0  0  0  0  0  0  0  0  0  0  0
  -10.6201    9.2137   -0.0000 N   0  0  0  0  0  0  0  0  0  0  0  0
   15.4475    4.6843   -0.0000 O   0  0  0  0  0  0  0  0  0  0  0  0
   16.7586    2.4315   -0.0000 N   0  0  0  0  0  0  0  0  0  0  0  0
   15.4475    0.1788   -0.0000 O   0  0  0  0  0  0  0  0  0  0  0  0
   12.8371    0.1788   -0.0000 C   0  0  0  0  0  0  0  0  0  0  0  0
  -19.7265    0.9893   -0.0000 O   0  0  0  0  0  0  0  0  0  0  0  0
  -21.0377    3.2421   -0.0000 C   0  0  0  0  0  0  0  0  0  0  0  0
   18.0459    3.1944   -0.0000 C   0  0  0  0  0  0  0  0  0  0  0  0
  -22.3488    2.5031   -0.0000 N   0  0  0  0  0  0  0  0  0  0  0  0
  -21.0496    4.7558   -0.0000 C   0  0  0  0  0  0  0  0  0  0  0  0
   19.3451    2.4554   -0.0000 C   0  0  0  0  0  0  0  0  0  0  0  0
  -23.6718    3.2659   -0.0000 C   0  0  0  0  0  0  0  0  0  0  0  0
  -19.7623    5.5187   -0.0000 C   0  0  0  0  0  0  0  0  0  0  0  0
   19.3332    0.9535   -0.0000 O   0  0  0  0  0  0  0  0  0  0  0  0
   20.6324    3.2182   -0.0000 N   0  0  0  0  0  0  0  0  0  0  0  0
  -23.6838    4.7797   -0.0000 O   0  0  0  0  0  0  0  0  0  0  0  0
  -24.9949    2.5269   -0.0000 C   0  0  0  0  0  0  0  0  0  0  0  0
  -18.4988    4.7797   -0.0000 C   0  0  0  0  0  0  0  0  0  0  0  0
  -19.7742    7.0324   -0.0000 C   0  0  0  0  0  0  0  0  0  0  0  0
   21.9197    2.4792   -0.0000 C   0  0  0  0  0  0  0  0  0  0  0  0
  -26.3060    3.2897   -0.0000 N   0  0  0  0  0  0  0  0  0  0  0  0
  -25.0068    1.0370   -0.0000 C   0  0  0  0  0  0  0  0  0  0  0  0
  -17.1996    5.5425   -0.0000 C   0  0  0  0  0  0  0  0  0  0  0  0
  -18.4988    7.7953   -0.0000 C   0  0  0  0  0  0  0  0  0  0  0  0
   23.2070    3.2421   -0.0000 C   0  0  0  0  0  0  0  0  0  0  0  0
   21.9078    0.9774   -0.0000 C   0  0  0  0  0  0  0  0  0  0  0  0
  -27.6291    2.5507   -0.0000 C   0  0  0  0  0  0  0  0  0  0  0  0
  -23.7076    0.2980   -0.0000 C   0  0  0  0  0  0  0  0  0  0  0  0
  -17.2116    7.0563   -0.0000 C   0  0  0  0  0  0  0  0  0  0  0  0
   23.1951    4.7558   -0.0000 O   0  0  0  0  0  0  0  0  0  0  0  0
   24.4943    2.5031   -0.0000 N   0  0  0  0  0  0  0  0  0  0  0  0
   23.1951    0.2384   -0.0000 C   0  0  0  0  0  0  0  0  0  0  0  0
  -27.6410    1.0608   -0.0000 O   0  0  0  0  0  0  0  0  0  0  0  0
  -28.9402    3.3136   -0.0000 C   0  0  0  0  0  0  0  0  0  0  0  0
  -23.7195   -1.1919   -0.0000 C   0  0  0  0  0  0  0  0  0  0  0  0
   25.7816    3.2659   -0.0000 C   0  0  0  0  0  0  0  0  0  0  0  0
   23.1832   -1.2515   -0.0000 O   0  0  0  0  0  0  0  0  0  0  0  0
   24.4824    1.0012   -0.0000 O   0  0  0  0  0  0  0  0  0  0  0  0
  -30.2513    2.5746   -0.0000 N   0  0  0  0  0  0  0  0  0  0  0  0
  -28.9521    4.8273   -0.0000 C   0  0  0  0  0  0  0  0  0  0  0  0
  -22.4442   -1.9309   -0.0000 N   0  0  0  0  0  0  0  0  0  0  0  0
   27.0689    2.5269   -0.0000 C   0  0  0  0  0  0  0  0  0  0  0  0
   25.7697    4.7797   -0.0000 C   0  0  0  0  0  0  0  0  0  0  0  0
  -27.6529    5.5902   -0.0000 C   0  0  0  0  0  0  0  0  0  0  0  0
  -22.4561   -3.4209   -0.0000 C   0  0  0  0  0  0  0  0  0  0  0  0
   27.0569    1.0251   -0.0000 O   0  0  0  0  0  0  0  0  0  0  0  0
   28.3562    3.2897   -0.0000 N   0  0  0  0  0  0  0  0  0  0  0  0
   27.0569    5.5425   -0.0000 C   0  0  0  0  0  0  0  0  0  0  0  0
   24.4585    5.5425   -0.0000 C   0  0  0  0  0  0  0  0  0  0  0  0
  -27.6648    7.1039   -0.0000 O   0  0  0  0  0  0  0  0  0  0  0  0
  -26.3537    4.8512   -0.0000 N   0  0  0  0  0  0  0  0  0  0  0  0
  -21.1569   -4.1599   -0.0000 N   0  0  0  0  0  0  0  0  0  0  0  0
  -23.7672   -4.1599   -0.0000 N   0  0  0  0  0  0  0  0  0  0  0  0
   29.6434    2.5507   -0.0000 C   0  0  0  0  0  0  0  0  0  0  0  0
   30.9307    3.3136   -0.0000 C   0  0  0  0  0  0  0  0  0  0  0  0
   29.6315    1.0608   -0.0000 C   0  0  0  0  0  0  0  0  0  0  0  0
   30.9188    4.8273   -0.0000 O   0  0  0  0  0  0  0  0  0  0  0  0
   32.2180    2.5627   -0.0000 N   0  0  0  0  0  0  0  0  0  0  0  0
   30.9188    0.3218   -0.0000 C   0  0  0  0  0  0  0  0  0  0  0  0
   33.5053    3.3255   -0.0000 C   0  0  0  0  0  0  0  0  0  0  0  0
   30.9069   -1.1681   -0.0000 C   0  0  0  0  0  0  0  0  0  0  0  0
   34.8045    2.5746   -0.0000 C   0  0  0  0  0  0  0  0  0  0  0  0
   33.4934    4.8393   -0.0000 C   0  0  0  0  0  0  0  0  0  0  0  0
   32.1942   -1.9071   -0.0000 C   0  0  0  0  0  0  0  0  0  0  0  0
   34.7926    1.0847   -0.0000 O   0  0  0  0  0  0  0  0  0  0  0  0
   36.0918    3.3374   -0.0000 N   0  0  0  0  0  0  0  0  0  0  0  0
   32.1823   -3.3970   -0.0000 N   0  0  0  0  0  0  0  0  0  0  0  0
   37.3910    2.5984   -0.0000 C   0  0  0  0  0  0  0  0  0  0  0  0
   38.6783    3.3613   -0.0000 C   0  0  0  0  0  0  0  0  0  0  0  0
   37.3791    1.1085   -0.0000 C   0  0  0  0  0  0  0  0  0  0  0  0
   38.6664    4.8750   -0.0000 O   0  0  0  0  0  0  0  0  0  0  0  0
   39.9775    2.6223   -0.0000 N   0  0  0  0  0  0  0  0  0  0  0  0
   38.6664    0.3695   -0.0000 S   0  0  0  0  0  0  0  0  0  0  0  0
   41.2648    3.3851   -0.0000 C   0  0  0  0  0  0  0  0  0  0  0  0
   42.5640    2.6461   -0.0000 C   0  0  0  0  0  0  0  0  0  0  0  0
   41.2529    4.8989   -0.0000 C   0  0  0  0  0  0  0  0  0  0  0  0
   42.5521    1.1562   -0.0000 O   0  0  0  0  0  0  0  0  0  0  0  0
   43.8513    3.4089   -0.0000 N   0  0  0  0  0  0  0  0  0  0  0  0
   42.5521    5.6617   -0.0000 C   0  0  0  0  0  0  0  0  0  0  0  0
   45.1505    2.6699   -0.0000 C   0  0  0  0  0  0  0  0  0  0  0  0
   42.5402    7.1755   -0.0000 C   0  0  0  0  0  0  0  0  0  0  0  0
   46.4378    3.4328   -0.0000 C   0  0  0  0  0  0  0  0  0  0  0  0
   45.1386    1.1800   -0.0000 C   0  0  0  0  0  0  0  0  0  0  0  0
   43.8275    7.9383   -0.0000 O   0  0  0  0  0  0  0  0  0  0  0  0
   41.2291    7.9383   -0.0000 O   0  0  0  0  0  0  0  0  0  0  0  0
   46.4259    4.9465   -0.0000 O   0  0  0  0  0  0  0  0  0  0  0  0
   47.7370    2.6819   -0.0000 N   0  0  0  0  0  0  0  0  0  0  0  0
   46.4259    0.4410   -0.0000 C   0  0  0  0  0  0  0  0  0  0  0  0
   49.0243    3.4447   -0.0000 C   0  0  0  0  0  0  0  0  0  0  0  0
   46.5689   -1.0489   -0.0000 C   0  0  0  0  0  0  0  0  0  0  0  0
   47.7966    1.0489   -0.0000 C   0  0  0  0  0  0  0  0  0  0  0  0
   50.3116    2.6938   -0.0000 C   0  0  0  0  0  0  0  0  0  0  0  0
   49.0124    4.9585   -0.0000 C   0  0  0  0  0  0  0  0  0  0  0  0
   48.0350   -1.3469   -0.0000 C   0  0  0  0  0  0  0  0  0  0  0  0
   45.5558   -2.1574   -0.0000 C   0  0  0  0  0  0  0  0  0  0  0  0
   48.7859   -0.0596   -0.0000 N   0  0  0  0  0  0  0  0  0  0  0  0
   50.2997    1.2039   -0.0000 O   0  0  0  0  0  0  0  0  0  0  0  0
   51.5989    3.4566   -0.0000 N   0  0  0  0  0  0  0  0  0  0  0  0
   48.4879   -2.7772   -0.0000 C   0  0  0  0  0  0  0  0  0  0  0  0
   46.0087   -3.5758   -0.0000 C   0  0  0  0  0  0  0  0  0  0  0  0
   52.8862    2.7176   -0.0000 C   0  0  0  0  0  0  0  0  0  0  0  0
   47.4629   -3.8857   -0.0000 C   0  0  0  0  0  0  0  0  0  0  0  0
   54.1735    3.4805   -0.0000 C   0  0  0  0  0  0  0  0  0  0  0  0
   52.8743    1.2277   -0.0000 C   0  0  0  0  0  0  0  0  0  0  0  0
   54.1616    4.9942   -0.0000 O   0  0  0  0  0  0  0  0  0  0  0  0
   55.4608    2.7415   -0.0000 N   0  0  0  0  0  0  0  0  0  0  0  0
   54.1616    0.4887   -0.0000 S   0  0  0  0  0  0  0  0  0  0  0  0
   56.7481    3.5043   -0.0000 C   0  0  0  0  0  0  0  0  0  0  0  0
   58.0354    2.7653   -0.0000 C   0  0  0  0  0  0  0  0  0  0  0  0
   56.7361    5.0180   -0.0000 C   0  0  0  0  0  0  0  0  0  0  0  0
   58.0234    1.2754   -0.0000 O   0  0  0  0  0  0  0  0  0  0  0  0
   59.3226    3.5281   -0.0000 O   0  0  0  0  0  0  0  0  0  0  0  0
   58.0234    5.7809   -0.0000 C   0  0  0  0  0  0  0  0  0  0  0  0
   58.0115    7.2946   -0.0000 C   0  0  0  0  0  0  0  0  0  0  0  0
   59.3107    8.0694   -0.0000 O   0  0  0  0  0  0  0  0  0  0  0  0
   56.7004    8.0575   -0.0000 N   0  0  0  0  0  0  0  0  0  0  0  0
  1  2  1  0  0  0  0
  2  3  1  0  0  0  0
  3  4  1  6  0  0  0
  3  5  1  0  0  0  0
  4  6  1  0  0  0  0
  5  7  2  0  0  0  0
  5  8  1  0  0  0  0
  6  9  2  0  0  0  0
  6 10  1  0  0  0  0
 11  8  1  1  0  0  0
 10 12  1  1  0  0  0
 10 13  1  0  0  0  0
 11 14  1  0  0  0  0
 11 15  1  0  0  0  0
 12 16  1  0  0  0  0
 13 17  1  0  0  0  0
 14 18  2  0  0  0  0
 14 19  1  0  0  0  0
 15 20  1  0  0  0  0
 15 21  1  6  0  0  0
 16 22  2  0  0  0  0
 16 23  1  0  0  0  0
 17 24  2  0  0  0  0
 17 25  1  0  0  0  0
 26 19  1  6  0  0  0
 20 27  1  0  0  0  0
 23 28  1  6  0  0  0
 23 29  1  0  0  0  0
 24 30  1  0  0  0  0
 25 31  2  0  0  0  0
 26 32  1  0  0  0  0
 26 33  1  0  0  0  0
 28 34  1  0  0  0  0
 29 35  1  0  0  0  0
 30 36  2  0  0  0  0
 32 37  2  0  0  0  0
 32 38  1  0  0  0  0
 33 39  1  0  0  0  0
 34 40  2  0  0  0  0
 34 41  1  0  0  0  0
 35 42  1  0  0  0  0
 35 43  1  0  0  0  0
 38 44  1  0  0  0  0
 39 45  1  0  0  0  0
 41 46  1  1  0  0  0
 41 47  1  0  0  0  0
 44 48  1  0  0  0  0
 45 49  2  0  0  0  0
 45 50  1  0  0  0  0
 46 51  1  0  0  0  0
 47 52  1  0  0  0  0
 48 53  2  0  0  0  0
 48 54  1  0  0  0  0
 51 55  2  0  0  0  0
 51 56  1  0  0  0  0
 52 57  1  0  0  0  0
 58 54  1  6  0  0  0
 56 59  1  6  0  0  0
 56 60  1  0  0  0  0
 57 61  1  0  0  0  0
 58 62  1  0  0  0  0
 58 63  1  0  0  0  0
 59 64  1  0  0  0  0
 60 65  1  0  0  0  0
 61 66  1  0  0  0  0
 62 67  2  0  0  0  0
 62 68  1  0  0  0  0
 63 69  1  6  0  0  0
 63 70  1  0  0  0  0
 64 71  2  0  0  0  0
 64 72  1  0  0  0  0
 68 73  1  0  0  0  0
 72 74  1  1  0  0  0
 72 75  1  0  0  0  0
 73 76  1  0  0  0  0
 74 77  1  0  0  0  0
 75 78  1  0  0  0  0
 76 79  2  0  0  0  0
 76 80  1  0  0  0  0
 77 81  2  0  0  0  0
 77 82  1  0  0  0  0
 78 83  2  0  0  0  0
 78 84  1  0  0  0  0
 85 80  1  6  0  0  0
 82 86  1  6  0  0  0
 82 87  1  0  0  0  0
 83 88  1  0  0  0  0
 84 89  2  0  0  0  0
 85 90  1  0  0  0  0
 85 91  1  0  0  0  0
 86 92  1  0  0  0  0
 87 93  1  0  0  0  0
 88 94  2  0  0  0  0
 90 95  2  0  0  0  0
 90 96  1  0  0  0  0
 91 97  1  0  0  0  0
 92 98  2  0  0  0  0
 92 99  1  0  0  0  0
 93100  1  0  0  0  0
101 96  1  1  0  0  0
 97102  2  0  0  0  0
 97103  1  0  0  0  0
 99104  1  1  0  0  0
 99105  1  0  0  0  0
100106  1  0  0  0  0
101107  1  0  0  0  0
101108  1  0  0  0  0
105109  1  0  0  0  0
106110  1  0  0  0  0
107111  2  0  0  0  0
107112  1  0  0  0  0
108113  1  0  0  0  0
108114  1  0  0  0  0
109115  2  0  0  0  0
109116  1  0  0  0  0
110117  2  0  0  0  0
110118  1  0  0  0  0
119112  1  6  0  0  0
119120  1  0  0  0  0
119121  1  0  0  0  0
120122  2  0  0  0  0
120123  1  0  0  0  0
121124  1  0  0  0  0
125123  1  1  0  0  0
124126  1  0  0  0  0
125127  1  0  0  0  0
125128  1  0  0  0  0
126129  1  0  0  0  0
127130  2  0  0  0  0
127131  1  0  0  0  0
129132  1  0  0  0  0
133131  1  6  0  0  0
133134  1  0  0  0  0
133135  1  0  0  0  0
134136  2  0  0  0  0
134137  1  0  0  0  0
135138  1  0  0  0  0
139137  1  1  0  0  0
139140  1  0  0  0  0
139141  1  0  0  0  0
140142  2  0  0  0  0
140143  1  0  0  0  0
141144  1  0  0  0  0
145143  1  6  0  0  0
144146  1  0  0  0  0
145147  1  0  0  0  0
145148  1  0  0  0  0
146149  2  0  0  0  0
146150  1  0  0  0  0
147151  2  0  0  0  0
147152  1  0  0  0  0
148153  1  0  0  0  0
154152  1  1  0  0  0
153155  1  0  0  0  0
153156  2  0  0  0  0
154157  1  0  0  0  0
154158  1  0  0  0  0
155159  2  0  0  0  0
155160  1  0  0  0  0
156161  1  0  0  0  0
157162  2  0  0  0  0
157163  1  0  0  0  0
159164  1  0  0  0  0
160165  2  0  0  0  0
166163  1  6  0  0  0
164167  2  0  0  0  0
166168  1  0  0  0  0
166169  1  0  0  0  0
168170  2  0  0  0  0
168171  1  0  0  0  0
169172  1  0  0  0  0
173171  1  1  0  0  0
173174  1  0  0  0  0
173175  1  0  0  0  0
174176  2  0  0  0  0
174177  1  0  0  0  0
175178  1  0  0  0  0
178179  1  0  0  0  0
179180  2  0  0  0  0
179181  1  0  0  0  0
 31 36  1  0  0  0  0
 89 94  1  0  0  0  0
159161  1  0  0  0  0
165167  1  0  0  0  0
M  END
>  <MolRegNo>
1625078

>  <m>
=

>  <Value>
2700

>  <Unit>
nM

>  <Type>
Ki

>  <pValue>
5.57

>  <Ligand Efficiency>
0

>  <Binding Efficiency>
2.12

>  <Surface Efficiency>
0

>  <Assay Index>
831551

>  <Assay Category>


>  <Assay Organism>
Homo sapiens

>  <Target ID>
56

>  <Target Name>
Androgen Receptor

>  <Target Organism>
Homo sapiens

>  <Target Description>
Target is a single protein chain

>  <Sequence Accession>
P10275

>  <Reference>
Medchemcomm 4 (1), 187-192 (2013)

>  <Pubmed ID>


>  <DOI>
10.1039/C2MD20182H

$$$$
1625077
Actelion Java MolfileCreator 1.0

179182  0  0  0  0  0  0  0  0999 V2000
    0.0000   -0.0000   -0.0000 S   0  0  0  0  0  0  0  0  0  0  0  0
   -1.3111    0.7628   -0.0000 C   0  0  0  0  0  0  0  0  0  0  0  0
   -1.3230    2.2884   -0.0000 C   0  0  0  0  0  0  0  0  0  0  0  0
   -2.6341    3.0512   -0.0000 N   0  0  0  0  0  0  0  0  0  0  0  0
   -0.0358    3.0512   -0.0000 C   0  0  0  0  0  0  0  0  0  0  0  0
   -3.9451    2.3123   -0.0000 C   0  0  0  0  0  0  0  0  0  0  0  0
   -0.0477    4.5649   -0.0000 O   0  0  0  0  0  0  0  0  0  0  0  0
    1.2515    2.3123   -0.0000 N   0  0  0  0  0  0  0  0  0  0  0  0
   -3.9571    0.8105   -0.0000 O   0  0  0  0  0  0  0  0  0  0  0  0
   -5.2681    3.0751   -0.0000 C   0  0  0  0  0  0  0  0  0  0  0  0
    2.5387    3.0751   -0.0000 C   0  0  0  0  0  0  0  0  0  0  0  0
   -6.5792    2.3361   -0.0000 N   0  0  0  0  0  0  0  0  0  0  0  0
   -5.2801    4.5888   -0.0000 C   0  0  0  0  0  0  0  0  0  0  0  0
    3.8260    2.3242   -0.0000 C   0  0  0  0  0  0  0  0  0  0  0  0
    2.5268    4.5888   -0.0000 C   0  0  0  0  0  0  0  0  0  0  0  0
   -7.9141    3.0989   -0.0000 C   0  0  0  0  0  0  0  0  0  0  0  0
   -3.9809    5.3516   -0.0000 C   0  0  0  0  0  0  0  0  0  0  0  0
    3.8140    0.8343   -0.0000 O   0  0  0  0  0  0  0  0  0  0  0  0
    5.1132    3.0870   -0.0000 N   0  0  0  0  0  0  0  0  0  0  0  0
    1.2157    5.3516   -0.0000 C   0  0  0  0  0  0  0  0  0  0  0  0
    3.8140    5.3516   -0.0000 C   0  0  0  0  0  0  0  0  0  0  0  0
   -7.9261    4.6126   -0.0000 O   0  0  0  0  0  0  0  0  0  0  0  0
   -9.2133    2.3599   -0.0000 C   0  0  0  0  0  0  0  0  0  0  0  0
   -2.6937    4.6126   -0.0000 C   0  0  0  0  0  0  0  0  0  0  0  0
   -3.9928    6.8653   -0.0000 C   0  0  0  0  0  0  0  0  0  0  0  0
    6.4124    2.3361   -0.0000 C   0  0  0  0  0  0  0  0  0  0  0  0
    1.2038    6.8653   -0.0000 C   0  0  0  0  0  0  0  0  0  0  0  0
  -10.5244    3.1227   -0.0000 N   0  0  0  0  0  0  0  0  0  0  0  0
   -9.2252    0.8701   -0.0000 C   0  0  0  0  0  0  0  0  0  0  0  0
   -1.4064    5.3754   -0.0000 C   0  0  0  0  0  0  0  0  0  0  0  0
   -2.7175    7.6281   -0.0000 C   0  0  0  0  0  0  0  0  0  0  0  0
    7.6996    3.0989   -0.0000 C   0  0  0  0  0  0  0  0  0  0  0  0
    6.4004    0.8462   -0.0000 C   0  0  0  0  0  0  0  0  0  0  0  0
  -11.8354    2.3838   -0.0000 C   0  0  0  0  0  0  0  0  0  0  0  0
   -7.9499    0.1311   -0.0000 C   0  0  0  0  0  0  0  0  0  0  0  0
   -1.4183    6.8891   -0.0000 C   0  0  0  0  0  0  0  0  0  0  0  0
    7.6877    4.6126   -0.0000 O   0  0  0  0  0  0  0  0  0  0  0  0
    8.9988    2.3599   -0.0000 N   0  0  0  0  0  0  0  0  0  0  0  0
    7.6877    0.1073   -0.0000 C   0  0  0  0  0  0  0  0  0  0  0  0
  -11.8474    0.8939   -0.0000 O   0  0  0  0  0  0  0  0  0  0  0  0
  -13.1465    3.1466   -0.0000 C   0  0  0  0  0  0  0  0  0  0  0  0
   -7.9618   -1.3588   -0.0000 C   0  0  0  0  0  0  0  0  0  0  0  0
   -6.6507    0.8939   -0.0000 C   0  0  0  0  0  0  0  0  0  0  0  0
   10.2860    3.1227   -0.0000 C   0  0  0  0  0  0  0  0  0  0  0  0
    7.6758   -1.3826   -0.0000 C   0  0  0  0  0  0  0  0  0  0  0  0
  -14.4576    2.4076   -0.0000 N   0  0  0  0  0  0  0  0  0  0  0  0
  -13.1584    4.6603   -0.0000 C   0  0  0  0  0  0  0  0  0  0  0  0
   11.5852    2.3838   -0.0000 C   0  0  0  0  0  0  0  0  0  0  0  0
    8.9630   -2.1216   -0.0000 O   0  0  0  0  0  0  0  0  0  0  0  0
    6.3528   -2.1335   -0.0000 N   0  0  0  0  0  0  0  0  0  0  0  0
  -15.7687    3.1704   -0.0000 C   0  0  0  0  0  0  0  0  0  0  0  0
  -11.8712    5.4231   -0.0000 C   0  0  0  0  0  0  0  0  0  0  0  0
   11.5732    0.8939   -0.0000 O   0  0  0  0  0  0  0  0  0  0  0  0
   12.8724    3.1466   -0.0000 N   0  0  0  0  0  0  0  0  0  0  0  0
  -15.7806    4.6841   -0.0000 O   0  0  0  0  0  0  0  0  0  0  0  0
  -17.0678    2.4315   -0.0000 C   0  0  0  0  0  0  0  0  0  0  0  0
  -11.8831    6.9368   -0.0000 C   0  0  0  0  0  0  0  0  0  0  0  0
   14.1715    2.4076   -0.0000 C   0  0  0  0  0  0  0  0  0  0  0  0
  -18.4028    3.1943   -0.0000 N   0  0  0  0  0  0  0  0  0  0  0  0
  -17.0798    0.9416   -0.0000 C   0  0  0  0  0  0  0  0  0  0  0  0
  -10.5959    7.6996   -0.0000 O   0  0  0  0  0  0  0  0  0  0  0  0
  -13.1942    7.6996   -0.0000 O   0  0  0  0  0  0  0  0  0  0  0  0
   15.4588    3.1704   -0.0000 C   0  0  0  0  0  0  0  0  0  0  0  0
   14.1596    0.9178   -0.0000 C   0  0  0  0  0  0  0  0  0  0  0  0
  -19.7019    2.4553   -0.0000 C   0  0  0  0  0  0  0  0  0  0  0  0
  -15.8044    0.2026   -0.0000 S   0  0  0  0  0  0  0  0  0  0  0  0
   15.4469    4.6841   -0.0000 O   0  0  0  0  0  0  0  0  0  0  0  0
   16.7579    2.4315   -0.0000 N   0  0  0  0  0  0  0  0  0  0  0  0
   15.4469    0.1788   -0.0000 O   0  0  0  0  0  0  0  0  0  0  0  0
   12.8366    0.1788   -0.0000 C   0  0  0  0  0  0  0  0  0  0  0  0
  -19.7138    0.9654   -0.0000 O   0  0  0  0  0  0  0  0  0  0  0  0
  -21.0249    3.2181   -0.0000 C   0  0  0  0  0  0  0  0  0  0  0  0
   18.0452    3.1943   -0.0000 C   0  0  0  0  0  0  0  0  0  0  0  0
  -22.3360    2.4791   -0.0000 N   0  0  0  0  0  0  0  0  0  0  0  0
  -21.0368    4.7318   -0.0000 C   0  0  0  0  0  0  0  0  0  0  0  0
   19.3443    2.4553   -0.0000 C   0  0  0  0  0  0  0  0  0  0  0  0
  -23.6590    3.2419   -0.0000 C   0  0  0  0  0  0  0  0  0  0  0  0
  -19.7496    5.4946   -0.0000 C   0  0  0  0  0  0  0  0  0  0  0  0
   19.3324    0.9654   -0.0000 O   0  0  0  0  0  0  0  0  0  0  0  0
   20.6316    3.2181   -0.0000 N   0  0  0  0  0  0  0  0  0  0  0  0
  -23.6709    4.7676   -0.0000 O   0  0  0  0  0  0  0  0  0  0  0  0
  -24.9820    2.5030   -0.0000 C   0  0  0  0  0  0  0  0  0  0  0  0
  -18.4862    4.7556   -0.0000 C   0  0  0  0  0  0  0  0  0  0  0  0
  -19.7615    7.0083   -0.0000 C   0  0  0  0  0  0  0  0  0  0  0  0
   21.9188    2.4672   -0.0000 C   0  0  0  0  0  0  0  0  0  0  0  0
  -26.2931    3.2658   -0.0000 N   0  0  0  0  0  0  0  0  0  0  0  0
  -24.9939    1.0131   -0.0000 C   0  0  0  0  0  0  0  0  0  0  0  0
  -17.1870    5.5184   -0.0000 C   0  0  0  0  0  0  0  0  0  0  0  0
  -18.4862    7.7711   -0.0000 C   0  0  0  0  0  0  0  0  0  0  0  0
   23.2061    3.2300   -0.0000 C   0  0  0  0  0  0  0  0  0  0  0  0
   21.9069    0.9773   -0.0000 C   0  0  0  0  0  0  0  0  0  0  0  0
  -27.6160    2.5268   -0.0000 C   0  0  0  0  0  0  0  0  0  0  0  0
  -23.6947    0.2741   -0.0000 C   0  0  0  0  0  0  0  0  0  0  0  0
  -17.1989    7.0321   -0.0000 C   0  0  0  0  0  0  0  0  0  0  0  0
   23.1941    4.7437   -0.0000 O   0  0  0  0  0  0  0  0  0  0  0  0
   24.4933    2.4791   -0.0000 N   0  0  0  0  0  0  0  0  0  0  0  0
   23.1941    0.2384   -0.0000 C   0  0  0  0  0  0  0  0  0  0  0  0
  -27.6280    1.0369   -0.0000 O   0  0  0  0  0  0  0  0  0  0  0  0
  -28.9271    3.2896   -0.0000 C   0  0  0  0  0  0  0  0  0  0  0  0
  -23.7067   -1.2157   -0.0000 C   0  0  0  0  0  0  0  0  0  0  0  0
   25.7805    3.2419   -0.0000 C   0  0  0  0  0  0  0  0  0  0  0  0
   23.1822   -1.2515   -0.0000 O   0  0  0  0  0  0  0  0  0  0  0  0
   24.4814    1.0012   -0.0000 O   0  0  0  0  0  0  0  0  0  0  0  0
  -30.2382    2.5506   -0.0000 N   0  0  0  0  0  0  0  0  0  0  0  0
  -28.9390    4.8152   -0.0000 C   0  0  0  0  0  0  0  0  0  0  0  0
  -22.4313   -1.9547   -0.0000 N   0  0  0  0  0  0  0  0  0  0  0  0
   27.0678    2.5030   -0.0000 C   0  0  0  0  0  0  0  0  0  0  0  0
   25.7686    4.7556   -0.0000 C   0  0  0  0  0  0  0  0  0  0  0  0
  -27.6399    5.5780   -0.0000 O   0  0  0  0  0  0  0  0  0  0  0  0
  -22.4433   -3.4565   -0.0000 C   0  0  0  0  0  0  0  0  0  0  0  0
   27.0559    1.0131   -0.0000 O   0  0  0  0  0  0  0  0  0  0  0  0
   28.3550    3.2658   -0.0000 N   0  0  0  0  0  0  0  0  0  0  0  0
   27.0559    5.5184   -0.0000 C   0  0  0  0  0  0  0  0  0  0  0  0
   24.4575    5.5184   -0.0000 C   0  0  0  0  0  0  0  0  0  0  0  0
  -21.1441   -4.1954   -0.0000 N   0  0  0  0  0  0  0  0  0  0  0  0
  -23.7543   -4.1954   -0.0000 N   0  0  0  0  0  0  0  0  0  0  0  0
   29.6423    2.5268   -0.0000 C   0  0  0  0  0  0  0  0  0  0  0  0
   30.9295    3.2896   -0.0000 C   0  0  0  0  0  0  0  0  0  0  0  0
   29.6303    1.0369   -0.0000 C   0  0  0  0  0  0  0  0  0  0  0  0
   30.9176    4.8033   -0.0000 O   0  0  0  0  0  0  0  0  0  0  0  0
   32.2167    2.5506   -0.0000 N   0  0  0  0  0  0  0  0  0  0  0  0
   30.9176    0.2980   -0.0000 C   0  0  0  0  0  0  0  0  0  0  0  0
   33.5040    3.3134   -0.0000 C   0  0  0  0  0  0  0  0  0  0  0  0
   30.9057   -1.1919   -0.0000 C   0  0  0  0  0  0  0  0  0  0  0  0
   34.8031    2.5745   -0.0000 C   0  0  0  0  0  0  0  0  0  0  0  0
   33.4921    4.8271   -0.0000 C   0  0  0  0  0  0  0  0  0  0  0  0
   32.1929   -1.9309   -0.0000 C   0  0  0  0  0  0  0  0  0  0  0  0
   34.7912    1.0846   -0.0000 O   0  0  0  0  0  0  0  0  0  0  0  0
   36.0904    3.3373   -0.0000 N   0  0  0  0  0  0  0  0  0  0  0  0
   32.1810   -3.4326   -0.0000 N   0  0  0  0  0  0  0  0  0  0  0  0
   37.3895    2.5983   -0.0000 C   0  0  0  0  0  0  0  0  0  0  0  0
   38.6768    3.3611   -0.0000 C   0  0  0  0  0  0  0  0  0  0  0  0
   37.3776    1.1085   -0.0000 C   0  0  0  0  0  0  0  0  0  0  0  0
   38.6648    4.8748   -0.0000 O   0  0  0  0  0  0  0  0  0  0  0  0
   39.9759    2.6222   -0.0000 N   0  0  0  0  0  0  0  0  0  0  0  0
   38.6648    0.3695   -0.0000 S   0  0  0  0  0  0  0  0  0  0  0  0
   41.2632    3.3850   -0.0000 C   0  0  0  0  0  0  0  0  0  0  0  0
   42.5623    2.6460   -0.0000 C   0  0  0  0  0  0  0  0  0  0  0  0
   41.2512    4.8987   -0.0000 C   0  0  0  0  0  0  0  0  0  0  0  0
   42.5504    1.1561   -0.0000 O   0  0  0  0  0  0  0  0  0  0  0  0
   43.8496    3.4088   -0.0000 N   0  0  0  0  0  0  0  0  0  0  0  0
   42.5504    5.6734   -0.0000 C   0  0  0  0  0  0  0  0  0  0  0  0
   45.1487    2.6698   -0.0000 C   0  0  0  0  0  0  0  0  0  0  0  0
   42.5385    7.1871   -0.0000 C   0  0  0  0  0  0  0  0  0  0  0  0
   46.4360    3.4326   -0.0000 C   0  0  0  0  0  0  0  0  0  0  0  0
   45.1368    1.1800   -0.0000 C   0  0  0  0  0  0  0  0  0  0  0  0
   43.8257    7.9499   -0.0000 O   0  0  0  0  0  0  0  0  0  0  0  0
   41.2274    7.9499   -0.0000 O   0  0  0  0  0  0  0  0  0  0  0  0
   46.4240    4.9463   -0.0000 O   0  0  0  0  0  0  0  0  0  0  0  0
   47.7351    2.6937   -0.0000 N   0  0  0  0  0  0  0  0  0  0  0  0
   46.4240    0.4410   -0.0000 C   0  0  0  0  0  0  0  0  0  0  0  0
   49.0224    3.4565   -0.0000 C   0  0  0  0  0  0  0  0  0  0  0  0
   46.5671   -1.0489   -0.0000 C   0  0  0  0  0  0  0  0  0  0  0  0
   47.7947    1.0608   -0.0000 C   0  0  0  0  0  0  0  0  0  0  0  0
   50.3096    2.7175   -0.0000 C   0  0  0  0  0  0  0  0  0  0  0  0
   49.0104    4.9702   -0.0000 C   0  0  0  0  0  0  0  0  0  0  0  0
   48.0331   -1.3468   -0.0000 C   0  0  0  0  0  0  0  0  0  0  0  0
   45.5540   -2.1573   -0.0000 C   0  0  0  0  0  0  0  0  0  0  0  0
   48.7840   -0.0477   -0.0000 N   0  0  0  0  0  0  0  0  0  0  0  0
   50.2977    1.2276   -0.0000 O   0  0  0  0  0  0  0  0  0  0  0  0
   51.5968    3.4803   -0.0000 N   0  0  0  0  0  0  0  0  0  0  0  0
   48.4860   -2.7652   -0.0000 C   0  0  0  0  0  0  0  0  0  0  0  0
   46.0069   -3.5757   -0.0000 C   0  0  0  0  0  0  0  0  0  0  0  0
   52.8841    2.7413   -0.0000 C   0  0  0  0  0  0  0  0  0  0  0  0
   47.4610   -3.8736   -0.0000 C   0  0  0  0  0  0  0  0  0  0  0  0
   54.1713    3.5042   -0.0000 C   0  0  0  0  0  0  0  0  0  0  0  0
   52.8722    1.2396   -0.0000 C   0  0  0  0  0  0  0  0  0  0  0  0
   54.1594    5.0178   -0.0000 O   0  0  0  0  0  0  0  0  0  0  0  0
   55.4586    2.7652   -0.0000 N   0  0  0  0  0  0  0  0  0  0  0  0
   54.1594    0.5006   -0.0000 S   0  0  0  0  0  0  0  0  0  0  0  0
   56.7458    3.5280   -0.0000 C   0  0  0  0  0  0  0  0  0  0  0  0
   58.0330    2.7890   -0.0000 C   0  0  0  0  0  0  0  0  0  0  0  0
   56.7339    5.0417   -0.0000 C   0  0  0  0  0  0  0  0  0  0  0  0
   58.0211    1.2872   -0.0000 O   0  0  0  0  0  0  0  0  0  0  0  0
   59.3203    3.5518   -0.0000 O   0  0  0  0  0  0  0  0  0  0  0  0
   58.0211    5.8164   -0.0000 C   0  0  0  0  0  0  0  0  0  0  0  0
   58.0092    7.3301   -0.0000 C   0  0  0  0  0  0  0  0  0  0  0  0
   59.3084    8.0929   -0.0000 O   0  0  0  0  0  0  0  0  0  0  0  0
   56.6981    8.0929   -0.0000 N   0  0  0  0  0  0  0  0  0  0  0  0
  1  2  1  0  0  0  0
  2  3  1  0  0  0  0
  3  4  1  6  0  0  0
  3  5  1  0  0  0  0
  4  6  1  0  0  0  0
  5  7  2  0  0  0  0
  5  8  1  0  0  0  0
  6  9  2  0  0  0  0
  6 10  1  0  0  0  0
 11  8  1  1  0  0  0
 10 12  1  1  0  0  0
 10 13  1  0  0  0  0
 11 14  1  0  0  0  0
 11 15  1  0  0  0  0
 12 16  1  0  0  0  0
 13 17  1  0  0  0  0
 14 18  2  0  0  0  0
 14 19  1  0  0  0  0
 15 20  1  0  0  0  0
 15 21  1  6  0  0  0
 16 22  2  0  0  0  0
 16 23  1  0  0  0  0
 17 24  2  0  0  0  0
 17 25  1  0  0  0  0
 26 19  1  6  0  0  0
 20 27  1  0  0  0  0
 23 28  1  6  0  0  0
 23 29  1  0  0  0  0
 24 30  1  0  0  0  0
 25 31  2  0  0  0  0
 26 32  1  0  0  0  0
 26 33  1  0  0  0  0
 28 34  1  0  0  0  0
 29 35  1  0  0  0  0
 30 36  2  0  0  0  0
 32 37  2  0  0  0  0
 32 38  1  0  0  0  0
 33 39  1  0  0  0  0
 34 40  2  0  0  0  0
 34 41  1  0  0  0  0
 35 42  1  0  0  0  0
 35 43  1  0  0  0  0
 38 44  1  0  0  0  0
 39 45  1  0  0  0  0
 41 46  1  1  0  0  0
 41 47  1  0  0  0  0
 44 48  1  0  0  0  0
 45 49  2  0  0  0  0
 45 50  1  0  0  0  0
 46 51  1  0  0  0  0
 47 52  1  0  0  0  0
 48 53  2  0  0  0  0
 48 54  1  0  0  0  0
 51 55  2  0  0  0  0
 51 56  1  0  0  0  0
 52 57  1  0  0  0  0
 58 54  1  6  0  0  0
 56 59  1  6  0  0  0
 56 60  1  0  0  0  0
 57 61  2  0  0  0  0
 57 62  1  0  0  0  0
 58 63  1  0  0  0  0
 58 64  1  0  0  0  0
 59 65  1  0  0  0  0
 60 66  1  0  0  0  0
 63 67  2  0  0  0  0
 63 68  1  0  0  0  0
 64 69  1  6  0  0  0
 64 70  1  0  0  0  0
 65 71  2  0  0  0  0
 65 72  1  0  0  0  0
 68 73  1  0  0  0  0
 72 74  1  1  0  0  0
 72 75  1  0  0  0  0
 73 76  1  0  0  0  0
 74 77  1  0  0  0  0
 75 78  1  0  0  0  0
 76 79  2  0  0  0  0
 76 80  1  0  0  0  0
 77 81  2  0  0  0  0
 77 82  1  0  0  0  0
 78 83  2  0  0  0  0
 78 84  1  0  0  0  0
 85 80  1  6  0  0  0
 82 86  1  6  0  0  0
 82 87  1  0  0  0  0
 83 88  1  0  0  0  0
 84 89  2  0  0  0  0
 85 90  1  0  0  0  0
 85 91  1  0  0  0  0
 86 92  1  0  0  0  0
 87 93  1  0  0  0  0
 88 94  2  0  0  0  0
 90 95  2  0  0  0  0
 90 96  1  0  0  0  0
 91 97  1  0  0  0  0
 92 98  2  0  0  0  0
 92 99  1  0  0  0  0
 93100  1  0  0  0  0
101 96  1  1  0  0  0
 97102  2  0  0  0  0
 97103  1  0  0  0  0
 99104  1  1  0  0  0
 99105  1  0  0  0  0
100106  1  0  0  0  0
101107  1  0  0  0  0
101108  1  0  0  0  0
105109  1  0  0  0  0
106110  1  0  0  0  0
107111  2  0  0  0  0
107112  1  0  0  0  0
108113  1  0  0  0  0
108114  1  0  0  0  0
110115  2  0  0  0  0
110116  1  0  0  0  0
117112  1  6  0  0  0
117118  1  0  0  0  0
117119  1  0  0  0  0
118120  2  0  0  0  0
118121  1  0  0  0  0
119122  1  0  0  0  0
123121  1  1  0  0  0
122124  1  0  0  0  0
123125  1  0  0  0  0
123126  1  0  0  0  0
124127  1  0  0  0  0
125128  2  0  0  0  0
125129  1  0  0  0  0
127130  1  0  0  0  0
131129  1  6  0  0  0
131132  1  0  0  0  0
131133  1  0  0  0  0
132134  2  0  0  0  0
132135  1  0  0  0  0
133136  1  0  0  0  0
137135  1  1  0  0  0
137138  1  0  0  0  0
137139  1  0  0  0  0
138140  2  0  0  0  0
138141  1  0  0  0  0
139142  1  0  0  0  0
143141  1  6  0  0  0
142144  1  0  0  0  0
143145  1  0  0  0  0
143146  1  0  0  0  0
144147  2  0  0  0  0
144148  1  0  0  0  0
145149  2  0  0  0  0
145150  1  0  0  0  0
146151  1  0  0  0  0
152150  1  1  0  0  0
151153  1  0  0  0  0
151154  2  0  0  0  0
152155  1  0  0  0  0
152156  1  0  0  0  0
153157  2  0  0  0  0
153158  1  0  0  0  0
154159  1  0  0  0  0
155160  2  0  0  0  0
155161  1  0  0  0  0
157162  1  0  0  0  0
158163  2  0  0  0  0
164161  1  6  0  0  0
162165  2  0  0  0  0
164166  1  0  0  0  0
164167  1  0  0  0  0
166168  2  0  0  0  0
166169  1  0  0  0  0
167170  1  0  0  0  0
171169  1  1  0  0  0
171172  1  0  0  0  0
171173  1  0  0  0  0
172174  2  0  0  0  0
172175  1  0  0  0  0
173176  1  0  0  0  0
176177  1  0  0  0  0
177178  2  0  0  0  0
177179  1  0  0  0  0
 31 36  1  0  0  0  0
 89 94  1  0  0  0  0
157159  1  0  0  0  0
163165  1  0  0  0  0
M  END
>  <MolRegNo>
1625077

>  <m>
=

>  <Value>
2500

>  <Unit>
nM

>  <Type>
Ki

>  <pValue>
5.6

>  <Ligand Efficiency>
0

>  <Binding Efficiency>
2.16

>  <Surface Efficiency>
0

>  <Assay Index>
831551

>  <Assay Category>


>  <Assay Organism>
Homo sapiens

>  <Target ID>
56

>  <Target Name>
Androgen Receptor

>  <Target Organism>
Homo sapiens

>  <Target Description>
Target is a single protein chain

>  <Sequence Accession>
P10275

>  <Reference>
Medchemcomm 4 (1), 187-192 (2013)

>  <Pubmed ID>


>  <DOI>
10.1039/C2MD20182H

$$$$
1625076
Actelion Java MolfileCreator 1.0

178181  0  0  0  0  0  0  0  0999 V2000
    0.0000   -0.0000   -0.0000 S   0  0  0  0  0  0  0  0  0  0  0  0
   -1.3109    0.7627   -0.0000 C   0  0  0  0  0  0  0  0  0  0  0  0
   -1.3228    2.2881   -0.0000 C   0  0  0  0  0  0  0  0  0  0  0  0
   -2.6337    3.0508   -0.0000 N   0  0  0  0  0  0  0  0  0  0  0  0
   -0.0358    3.0508   -0.0000 C   0  0  0  0  0  0  0  0  0  0  0  0
   -3.9446    2.3119   -0.0000 C   0  0  0  0  0  0  0  0  0  0  0  0
   -0.0477    4.5643   -0.0000 O   0  0  0  0  0  0  0  0  0  0  0  0
    1.2513    2.3119   -0.0000 N   0  0  0  0  0  0  0  0  0  0  0  0
   -3.9565    0.8104   -0.0000 O   0  0  0  0  0  0  0  0  0  0  0  0
   -5.2674    3.0746   -0.0000 C   0  0  0  0  0  0  0  0  0  0  0  0
    2.5384    3.0746   -0.0000 C   0  0  0  0  0  0  0  0  0  0  0  0
   -6.5783    2.3358   -0.0000 N   0  0  0  0  0  0  0  0  0  0  0  0
   -5.2793    4.5881   -0.0000 C   0  0  0  0  0  0  0  0  0  0  0  0
    3.8254    2.3358   -0.0000 C   0  0  0  0  0  0  0  0  0  0  0  0
    2.5264    4.5881   -0.0000 C   0  0  0  0  0  0  0  0  0  0  0  0
   -7.9130    3.0985   -0.0000 C   0  0  0  0  0  0  0  0  0  0  0  0
   -3.9803    5.3508   -0.0000 C   0  0  0  0  0  0  0  0  0  0  0  0
    3.8135    0.8461   -0.0000 O   0  0  0  0  0  0  0  0  0  0  0  0
    5.1125    3.0985   -0.0000 N   0  0  0  0  0  0  0  0  0  0  0  0
    1.2156    5.3508   -0.0000 C   0  0  0  0  0  0  0  0  0  0  0  0
    3.8135    5.3508   -0.0000 C   0  0  0  0  0  0  0  0  0  0  0  0
   -7.9249    4.6119   -0.0000 O   0  0  0  0  0  0  0  0  0  0  0  0
   -9.2120    2.3596   -0.0000 C   0  0  0  0  0  0  0  0  0  0  0  0
   -2.6933    4.6000   -0.0000 C   0  0  0  0  0  0  0  0  0  0  0  0
   -3.9923    6.8643   -0.0000 C   0  0  0  0  0  0  0  0  0  0  0  0
    6.4114    2.3596   -0.0000 C   0  0  0  0  0  0  0  0  0  0  0  0
    1.2036    6.8643   -0.0000 C   0  0  0  0  0  0  0  0  0  0  0  0
  -10.5229    3.1223   -0.0000 N   0  0  0  0  0  0  0  0  0  0  0  0
   -9.2239    0.8580   -0.0000 C   0  0  0  0  0  0  0  0  0  0  0  0
   -1.4062    5.3627   -0.0000 C   0  0  0  0  0  0  0  0  0  0  0  0
   -2.7171    7.6270   -0.0000 C   0  0  0  0  0  0  0  0  0  0  0  0
    7.6985    3.1223   -0.0000 C   0  0  0  0  0  0  0  0  0  0  0  0
    6.3995    0.8700   -0.0000 C   0  0  0  0  0  0  0  0  0  0  0  0
  -11.8338    2.3834   -0.0000 C   0  0  0  0  0  0  0  0  0  0  0  0
   -7.9488    0.1192   -0.0000 C   0  0  0  0  0  0  0  0  0  0  0  0
   -1.4181    6.8762   -0.0000 C   0  0  0  0  0  0  0  0  0  0  0  0
    7.6866    4.6358   -0.0000 O   0  0  0  0  0  0  0  0  0  0  0  0
    8.9975    2.3715   -0.0000 N   0  0  0  0  0  0  0  0  0  0  0  0
    7.6866    0.1311   -0.0000 C   0  0  0  0  0  0  0  0  0  0  0  0
  -11.8457    0.8938   -0.0000 O   0  0  0  0  0  0  0  0  0  0  0  0
  -13.1447    3.1461   -0.0000 C   0  0  0  0  0  0  0  0  0  0  0  0
   -7.9607   -1.3705   -0.0000 C   0  0  0  0  0  0  0  0  0  0  0  0
   -6.6498    0.8819   -0.0000 C   0  0  0  0  0  0  0  0  0  0  0  0
   10.2845    3.1342   -0.0000 C   0  0  0  0  0  0  0  0  0  0  0  0
    7.6747   -1.3586   -0.0000 C   0  0  0  0  0  0  0  0  0  0  0  0
  -14.4555    2.4073   -0.0000 N   0  0  0  0  0  0  0  0  0  0  0  0
  -13.1566    4.6596   -0.0000 C   0  0  0  0  0  0  0  0  0  0  0  0
   11.5835    2.3834   -0.0000 C   0  0  0  0  0  0  0  0  0  0  0  0
    8.9617   -2.0974   -0.0000 O   0  0  0  0  0  0  0  0  0  0  0  0
    6.3519   -2.0974   -0.0000 N   0  0  0  0  0  0  0  0  0  0  0  0
  -15.7664    3.1700   -0.0000 C   0  0  0  0  0  0  0  0  0  0  0  0
  -11.8695    5.4223   -0.0000 C   0  0  0  0  0  0  0  0  0  0  0  0
   11.5716    0.8938   -0.0000 O   0  0  0  0  0  0  0  0  0  0  0  0
   12.8706    3.1461   -0.0000 N   0  0  0  0  0  0  0  0  0  0  0  0
  -15.7783    4.6835   -0.0000 O   0  0  0  0  0  0  0  0  0  0  0  0
  -17.0654    2.4311   -0.0000 C   0  0  0  0  0  0  0  0  0  0  0  0
  -11.8814    6.9358   -0.0000 C   0  0  0  0  0  0  0  0  0  0  0  0
   14.1695    2.4073   -0.0000 C   0  0  0  0  0  0  0  0  0  0  0  0
  -18.4001    3.1938   -0.0000 N   0  0  0  0  0  0  0  0  0  0  0  0
  -17.0773    0.9415   -0.0000 C   0  0  0  0  0  0  0  0  0  0  0  0
  -10.5944    7.7104   -0.0000 O   0  0  0  0  0  0  0  0  0  0  0  0
  -13.1923    7.6985   -0.0000 O   0  0  0  0  0  0  0  0  0  0  0  0
   15.4566    3.1700   -0.0000 C   0  0  0  0  0  0  0  0  0  0  0  0
   14.1576    0.9176   -0.0000 C   0  0  0  0  0  0  0  0  0  0  0  0
  -19.6991    2.4549   -0.0000 C   0  0  0  0  0  0  0  0  0  0  0  0
  -15.8022    0.2026   -0.0000 S   0  0  0  0  0  0  0  0  0  0  0  0
   15.4447    4.6835   -0.0000 O   0  0  0  0  0  0  0  0  0  0  0  0
   16.7556    2.4311   -0.0000 N   0  0  0  0  0  0  0  0  0  0  0  0
   15.4447    0.1788   -0.0000 O   0  0  0  0  0  0  0  0  0  0  0  0
   12.8348    0.1788   -0.0000 C   0  0  0  0  0  0  0  0  0  0  0  0
  -19.7110    0.9653   -0.0000 O   0  0  0  0  0  0  0  0  0  0  0  0
  -21.0100    3.2176   -0.0000 C   0  0  0  0  0  0  0  0  0  0  0  0
   18.0426    3.1938   -0.0000 C   0  0  0  0  0  0  0  0  0  0  0  0
  -22.3209    2.4788   -0.0000 N   0  0  0  0  0  0  0  0  0  0  0  0
  -21.0219    4.7311   -0.0000 C   0  0  0  0  0  0  0  0  0  0  0  0
   19.3416    2.4549   -0.0000 C   0  0  0  0  0  0  0  0  0  0  0  0
  -23.6437    3.2415   -0.0000 C   0  0  0  0  0  0  0  0  0  0  0  0
  -19.7349    5.5057   -0.0000 C   0  0  0  0  0  0  0  0  0  0  0  0
   19.3297    0.9653   -0.0000 O   0  0  0  0  0  0  0  0  0  0  0  0
   20.6286    3.2176   -0.0000 N   0  0  0  0  0  0  0  0  0  0  0  0
  -23.6556    4.7669   -0.0000 O   0  0  0  0  0  0  0  0  0  0  0  0
  -24.9665    2.5026   -0.0000 C   0  0  0  0  0  0  0  0  0  0  0  0
  -18.4716    4.7550   -0.0000 C   0  0  0  0  0  0  0  0  0  0  0  0
  -19.7468    7.0192   -0.0000 C   0  0  0  0  0  0  0  0  0  0  0  0
   21.9157    2.4788   -0.0000 C   0  0  0  0  0  0  0  0  0  0  0  0
  -26.2774    3.2653   -0.0000 N   0  0  0  0  0  0  0  0  0  0  0  0
  -24.9784    1.0130   -0.0000 C   0  0  0  0  0  0  0  0  0  0  0  0
  -17.1727    5.5177   -0.0000 C   0  0  0  0  0  0  0  0  0  0  0  0
  -18.4716    7.7819   -0.0000 C   0  0  0  0  0  0  0  0  0  0  0  0
   23.2028    3.2415   -0.0000 C   0  0  0  0  0  0  0  0  0  0  0  0
   21.9038    0.9891   -0.0000 C   0  0  0  0  0  0  0  0  0  0  0  0
  -27.6002    2.5264   -0.0000 C   0  0  0  0  0  0  0  0  0  0  0  0
  -23.6794    0.2741   -0.0000 C   0  0  0  0  0  0  0  0  0  0  0  0
  -17.1846    7.0311   -0.0000 C   0  0  0  0  0  0  0  0  0  0  0  0
   23.1908    4.7550   -0.0000 O   0  0  0  0  0  0  0  0  0  0  0  0
   24.4898    2.5026   -0.0000 N   0  0  0  0  0  0  0  0  0  0  0  0
   23.1908    0.2503   -0.0000 C   0  0  0  0  0  0  0  0  0  0  0  0
  -27.6121    1.0368   -0.0000 O   0  0  0  0  0  0  0  0  0  0  0  0
  -28.9111    3.2891   -0.0000 C   0  0  0  0  0  0  0  0  0  0  0  0
  -23.6914   -1.2156   -0.0000 C   0  0  0  0  0  0  0  0  0  0  0  0
  -22.4043    1.0368   -0.0000 C   0  0  0  0  0  0  0  0  0  0  0  0
   25.7769    3.2653   -0.0000 C   0  0  0  0  0  0  0  0  0  0  0  0
   23.1789   -1.2513   -0.0000 O   0  0  0  0  0  0  0  0  0  0  0  0
   24.4779    1.0130   -0.0000 O   0  0  0  0  0  0  0  0  0  0  0  0
  -30.2220    2.5503   -0.0000 N   0  0  0  0  0  0  0  0  0  0  0  0
  -28.9230    4.8145   -0.0000 C   0  0  0  0  0  0  0  0  0  0  0  0
   27.0639    2.5145   -0.0000 C   0  0  0  0  0  0  0  0  0  0  0  0
   25.7649    4.7788   -0.0000 C   0  0  0  0  0  0  0  0  0  0  0  0
  -27.6240    5.5772   -0.0000 C   0  0  0  0  0  0  0  0  0  0  0  0
   27.0520    1.0249   -0.0000 O   0  0  0  0  0  0  0  0  0  0  0  0
   28.3510    3.2772   -0.0000 N   0  0  0  0  0  0  0  0  0  0  0  0
   27.0520    5.5415   -0.0000 C   0  0  0  0  0  0  0  0  0  0  0  0
   24.4541    5.5415   -0.0000 C   0  0  0  0  0  0  0  0  0  0  0  0
  -27.6359    7.0907   -0.0000 O   0  0  0  0  0  0  0  0  0  0  0  0
  -26.3251    4.8384   -0.0000 N   0  0  0  0  0  0  0  0  0  0  0  0
   29.6380    2.5264   -0.0000 C   0  0  0  0  0  0  0  0  0  0  0  0
   30.9251    3.2891   -0.0000 C   0  0  0  0  0  0  0  0  0  0  0  0
   29.6261    1.0368   -0.0000 C   0  0  0  0  0  0  0  0  0  0  0  0
   30.9132    4.8026   -0.0000 O   0  0  0  0  0  0  0  0  0  0  0  0
   32.2121    2.5503   -0.0000 N   0  0  0  0  0  0  0  0  0  0  0  0
   30.9132    0.2979   -0.0000 C   0  0  0  0  0  0  0  0  0  0  0  0
   33.4992    3.3130   -0.0000 C   0  0  0  0  0  0  0  0  0  0  0  0
   30.9013   -1.1917   -0.0000 C   0  0  0  0  0  0  0  0  0  0  0  0
   34.7982    2.5741   -0.0000 C   0  0  0  0  0  0  0  0  0  0  0  0
   33.4873    4.8265   -0.0000 C   0  0  0  0  0  0  0  0  0  0  0  0
   32.1883   -1.9306   -0.0000 C   0  0  0  0  0  0  0  0  0  0  0  0
   34.7863    1.0845   -0.0000 O   0  0  0  0  0  0  0  0  0  0  0  0
   36.0852    3.3368   -0.0000 N   0  0  0  0  0  0  0  0  0  0  0  0
   32.1764   -3.4202   -0.0000 N   0  0  0  0  0  0  0  0  0  0  0  0
   37.3842    2.5979   -0.0000 C   0  0  0  0  0  0  0  0  0  0  0  0
   38.6713    3.3606   -0.0000 C   0  0  0  0  0  0  0  0  0  0  0  0
   37.3723    1.1083   -0.0000 C   0  0  0  0  0  0  0  0  0  0  0  0
   38.6593    4.8741   -0.0000 O   0  0  0  0  0  0  0  0  0  0  0  0
   39.9702    2.6218   -0.0000 N   0  0  0  0  0  0  0  0  0  0  0  0
   38.6593    0.3694   -0.0000 S   0  0  0  0  0  0  0  0  0  0  0  0
   41.2573    3.3845   -0.0000 C   0  0  0  0  0  0  0  0  0  0  0  0
   42.5563    2.6456   -0.0000 C   0  0  0  0  0  0  0  0  0  0  0  0
   41.2454    4.9099   -0.0000 C   0  0  0  0  0  0  0  0  0  0  0  0
   42.5443    1.1560   -0.0000 O   0  0  0  0  0  0  0  0  0  0  0  0
   43.8433    3.4083   -0.0000 N   0  0  0  0  0  0  0  0  0  0  0  0
   42.5443    5.6726   -0.0000 C   0  0  0  0  0  0  0  0  0  0  0  0
   45.1423    2.6694   -0.0000 C   0  0  0  0  0  0  0  0  0  0  0  0
   42.5324    7.1861   -0.0000 C   0  0  0  0  0  0  0  0  0  0  0  0
   46.4293    3.4321   -0.0000 C   0  0  0  0  0  0  0  0  0  0  0  0
   45.1304    1.1798   -0.0000 C   0  0  0  0  0  0  0  0  0  0  0  0
   43.8195    7.9488   -0.0000 O   0  0  0  0  0  0  0  0  0  0  0  0
   41.2215    7.9488   -0.0000 O   0  0  0  0  0  0  0  0  0  0  0  0
   46.4174    4.9456   -0.0000 O   0  0  0  0  0  0  0  0  0  0  0  0
   47.7283    2.6933   -0.0000 N   0  0  0  0  0  0  0  0  0  0  0  0
   46.4174    0.4409   -0.0000 C   0  0  0  0  0  0  0  0  0  0  0  0
   49.0154    3.4560   -0.0000 C   0  0  0  0  0  0  0  0  0  0  0  0
   46.5604   -1.0487   -0.0000 C   0  0  0  0  0  0  0  0  0  0  0  0
   47.7879    1.0606   -0.0000 C   0  0  0  0  0  0  0  0  0  0  0  0
   50.3024    2.7171   -0.0000 C   0  0  0  0  0  0  0  0  0  0  0  0
   49.0035    4.9695   -0.0000 C   0  0  0  0  0  0  0  0  0  0  0  0
   48.0262   -1.3466   -0.0000 C   0  0  0  0  0  0  0  0  0  0  0  0
   45.5475   -2.1570   -0.0000 C   0  0  0  0  0  0  0  0  0  0  0  0
   48.7770   -0.0477   -0.0000 N   0  0  0  0  0  0  0  0  0  0  0  0
   50.2905    1.2275   -0.0000 O   0  0  0  0  0  0  0  0  0  0  0  0
   51.5895    3.4798   -0.0000 N   0  0  0  0  0  0  0  0  0  0  0  0
   48.4791   -2.7648   -0.0000 C   0  0  0  0  0  0  0  0  0  0  0  0
   46.0003   -3.5752   -0.0000 C   0  0  0  0  0  0  0  0  0  0  0  0
   52.8765    2.7410   -0.0000 C   0  0  0  0  0  0  0  0  0  0  0  0
   47.4542   -3.8731   -0.0000 C   0  0  0  0  0  0  0  0  0  0  0  0
   54.1636    3.5037   -0.0000 C   0  0  0  0  0  0  0  0  0  0  0  0
   52.8646    1.2513   -0.0000 C   0  0  0  0  0  0  0  0  0  0  0  0
   54.1517    5.0171   -0.0000 O   0  0  0  0  0  0  0  0  0  0  0  0
   55.4506    2.7648   -0.0000 N   0  0  0  0  0  0  0  0  0  0  0  0
   54.1517    0.5124   -0.0000 S   0  0  0  0  0  0  0  0  0  0  0  0
   56.7377    3.5275   -0.0000 C   0  0  0  0  0  0  0  0  0  0  0  0
   58.0248    2.7886   -0.0000 C   0  0  0  0  0  0  0  0  0  0  0  0
   56.7258    5.0410   -0.0000 C   0  0  0  0  0  0  0  0  0  0  0  0
   58.0128    1.2871   -0.0000 O   0  0  0  0  0  0  0  0  0  0  0  0
   59.3118    3.5513   -0.0000 O   0  0  0  0  0  0  0  0  0  0  0  0
   58.0128    5.8037   -0.0000 C   0  0  0  0  0  0  0  0  0  0  0  0
   58.0009    7.3171   -0.0000 C   0  0  0  0  0  0  0  0  0  0  0  0
   59.2999    8.0798   -0.0000 O   0  0  0  0  0  0  0  0  0  0  0  0
   56.6900    8.0798   -0.0000 N   0  0  0  0  0  0  0  0  0  0  0  0
  1  2  1  0  0  0  0
  2  3  1  0  0  0  0
  3  4  1  6  0  0  0
  3  5  1  0  0  0  0
  4  6  1  0  0  0  0
  5  7  2  0  0  0  0
  5  8  1  0  0  0  0
  6  9  2  0  0  0  0
  6 10  1  0  0  0  0
 11  8  1  1  0  0  0
 10 12  1  1  0  0  0
 10 13  1  0  0  0  0
 11 14  1  0  0  0  0
 11 15  1  0  0  0  0
 12 16  1  0  0  0  0
 13 17  1  0  0  0  0
 14 18  2  0  0  0  0
 14 19  1  0  0  0  0
 15 20  1  0  0  0  0
 15 21  1  6  0  0  0
 16 22  2  0  0  0  0
 16 23  1  0  0  0  0
 17 24  2  0  0  0  0
 17 25  1  0  0  0  0
 26 19  1  6  0  0  0
 20 27  1  0  0  0  0
 23 28  1  6  0  0  0
 23 29  1  0  0  0  0
 24 30  1  0  0  0  0
 25 31  2  0  0  0  0
 26 32  1  0  0  0  0
 26 33  1  0  0  0  0
 28 34  1  0  0  0  0
 29 35  1  0  0  0  0
 30 36  2  0  0  0  0
 32 37  2  0  0  0  0
 32 38  1  0  0  0  0
 33 39  1  0  0  0  0
 34 40  2  0  0  0  0
 34 41  1  0  0  0  0
 35 42  1  0  0  0  0
 35 43  1  0  0  0  0
 38 44  1  0  0  0  0
 39 45  1  0  0  0  0
 41 46  1  1  0  0  0
 41 47  1  0  0  0  0
 44 48  1  0  0  0  0
 45 49  2  0  0  0  0
 45 50  1  0  0  0  0
 46 51  1  0  0  0  0
 47 52  1  0  0  0  0
 48 53  2  0  0  0  0
 48 54  1  0  0  0  0
 51 55  2  0  0  0  0
 51 56  1  0  0  0  0
 52 57  1  0  0  0  0
 58 54  1  6  0  0  0
 56 59  1  6  0  0  0
 56 60  1  0  0  0  0
 57 61  2  0  0  0  0
 57 62  1  0  0  0  0
 58 63  1  0  0  0  0
 58 64  1  0  0  0  0
 59 65  1  0  0  0  0
 60 66  1  0  0  0  0
 63 67  2  0  0  0  0
 63 68  1  0  0  0  0
 64 69  1  6  0  0  0
 64 70  1  0  0  0  0
 65 71  2  0  0  0  0
 65 72  1  0  0  0  0
 68 73  1  0  0  0  0
 72 74  1  1  0  0  0
 72 75  1  0  0  0  0
 73 76  1  0  0  0  0
 74 77  1  0  0  0  0
 75 78  1  0  0  0  0
 76 79  2  0  0  0  0
 76 80  1  0  0  0  0
 77 81  2  0  0  0  0
 77 82  1  0  0  0  0
 78 83  2  0  0  0  0
 78 84  1  0  0  0  0
 85 80  1  6  0  0  0
 82 86  1  6  0  0  0
 82 87  1  0  0  0  0
 83 88  1  0  0  0  0
 84 89  2  0  0  0  0
 85 90  1  0  0  0  0
 85 91  1  0  0  0  0
 86 92  1  0  0  0  0
 87 93  1  0  0  0  0
 88 94  2  0  0  0  0
 90 95  2  0  0  0  0
 90 96  1  0  0  0  0
 91 97  1  0  0  0  0
 92 98  2  0  0  0  0
 92 99  1  0  0  0  0
 93100  1  0  0  0  0
 93101  1  0  0  0  0
102 96  1  1  0  0  0
 97103  2  0  0  0  0
 97104  1  0  0  0  0
 99105  1  1  0  0  0
 99106  1  0  0  0  0
102107  1  0  0  0  0
102108  1  0  0  0  0
106109  1  0  0  0  0
107110  2  0  0  0  0
107111  1  0  0  0  0
108112  1  0  0  0  0
108113  1  0  0  0  0
109114  2  0  0  0  0
109115  1  0  0  0  0
116111  1  6  0  0  0
116117  1  0  0  0  0
116118  1  0  0  0  0
117119  2  0  0  0  0
117120  1  0  0  0  0
118121  1  0  0  0  0
122120  1  1  0  0  0
121123  1  0  0  0  0
122124  1  0  0  0  0
122125  1  0  0  0  0
123126  1  0  0  0  0
124127  2  0  0  0  0
124128  1  0  0  0  0
126129  1  0  0  0  0
130128  1  6  0  0  0
130131  1  0  0  0  0
130132  1  0  0  0  0
131133  2  0  0  0  0
131134  1  0  0  0  0
132135  1  0  0  0  0
136134  1  1  0  0  0
136137  1  0  0  0  0
136138  1  0  0  0  0
137139  2  0  0  0  0
137140  1  0  0  0  0
138141  1  0  0  0  0
142140  1  6  0  0  0
141143  1  0  0  0  0
142144  1  0  0  0  0
142145  1  0  0  0  0
143146  2  0  0  0  0
143147  1  0  0  0  0
144148  2  0  0  0  0
144149  1  0  0  0  0
145150  1  0  0  0  0
151149  1  1  0  0  0
150152  1  0  0  0  0
150153  2  0  0  0  0
151154  1  0  0  0  0
151155  1  0  0  0  0
152156  2  0  0  0  0
152157  1  0  0  0  0
153158  1  0  0  0  0
154159  2  0  0  0  0
154160  1  0  0  0  0
156161  1  0  0  0  0
157162  2  0  0  0  0
163160  1  6  0  0  0
161164  2  0  0  0  0
163165  1  0  0  0  0
163166  1  0  0  0  0
165167  2  0  0  0  0
165168  1  0  0  0  0
166169  1  0  0  0  0
170168  1  1  0  0  0
170171  1  0  0  0  0
170172  1  0  0  0  0
171173  2  0  0  0  0
171174  1  0  0  0  0
172175  1  0  0  0  0
175176  1  0  0  0  0
176177  2  0  0  0  0
176178  1  0  0  0  0
 31 36  1  0  0  0  0
 89 94  1  0  0  0  0
156158  1  0  0  0  0
162164  1  0  0  0  0
M  END
>  <MolRegNo>
1625076

>  <m>
=

>  <Value>
10000

>  <Unit>
nM

>  <Type>
Ki

>  <pValue>
5

>  <Ligand Efficiency>
0

>  <Binding Efficiency>
1.94

>  <Surface Efficiency>
0

>  <Assay Index>
831551

>  <Assay Category>


>  <Assay Organism>
Homo sapiens

>  <Target ID>
56

>  <Target Name>
Androgen Receptor

>  <Target Organism>
Homo sapiens

>  <Target Description>
Target is a single protein chain

>  <Sequence Accession>
P10275

>  <Reference>
Medchemcomm 4 (1), 187-192 (2013)

>  <Pubmed ID>


>  <DOI>
10.1039/C2MD20182H

$$$$
1625075
Actelion Java MolfileCreator 1.0

175176  0  0  0  0  0  0  0  0999 V2000
    0.0000   -0.0000   -0.0000 S   0  0  0  0  0  0  0  0  0  0  0  0
   -1.3081    0.7848   -0.0000 C   0  0  0  0  0  0  0  0  0  0  0  0
   -1.2962    2.2950   -0.0000 C   0  0  0  0  0  0  0  0  0  0  0  0
   -2.6042    3.0799   -0.0000 N   0  0  0  0  0  0  0  0  0  0  0  0
    0.0000    3.0323   -0.0000 C   0  0  0  0  0  0  0  0  0  0  0  0
   -3.9242    2.3664   -0.0000 C   0  0  0  0  0  0  0  0  0  0  0  0
    0.0119    4.5425   -0.0000 O   0  0  0  0  0  0  0  0  0  0  0  0
    1.2843    2.2713   -0.0000 N   0  0  0  0  0  0  0  0  0  0  0  0
   -3.9598    0.8800   -0.0000 O   0  0  0  0  0  0  0  0  0  0  0  0
   -5.2322    3.1512   -0.0000 C   0  0  0  0  0  0  0  0  0  0  0  0
    2.5804    3.0085   -0.0000 C   0  0  0  0  0  0  0  0  0  0  0  0
   -6.5521    2.4377   -0.0000 N   0  0  0  0  0  0  0  0  0  0  0  0
   -5.2084    4.6614   -0.0000 C   0  0  0  0  0  0  0  0  0  0  0  0
    3.8647    2.2475   -0.0000 C   0  0  0  0  0  0  0  0  0  0  0  0
    2.5923    4.5187   -0.0000 C   0  0  0  0  0  0  0  0  0  0  0  0
   -7.8602    3.2226   -0.0000 C   0  0  0  0  0  0  0  0  0  0  0  0
   -3.9242    5.3987   -0.0000 C   0  0  0  0  0  0  0  0  0  0  0  0
    3.8290    0.7492   -0.0000 O   0  0  0  0  0  0  0  0  0  0  0  0
    5.1609    2.9847   -0.0000 N   0  0  0  0  0  0  0  0  0  0  0  0
    1.2843    5.3036   -0.0000 C   0  0  0  0  0  0  0  0  0  0  0  0
    3.8885    5.2560   -0.0000 C   0  0  0  0  0  0  0  0  0  0  0  0
   -7.8364    4.7328   -0.0000 O   0  0  0  0  0  0  0  0  0  0  0  0
   -9.1801    2.5091   -0.0000 C   0  0  0  0  0  0  0  0  0  0  0  0
   -3.9123    6.9089   -0.0000 C   0  0  0  0  0  0  0  0  0  0  0  0
   -2.6399    4.6376   -0.0000 C   0  0  0  0  0  0  0  0  0  0  0  0
    6.4451    2.2356   -0.0000 C   0  0  0  0  0  0  0  0  0  0  0  0
    1.2962    6.8138   -0.0000 C   0  0  0  0  0  0  0  0  0  0  0  0
  -10.4763    3.2939   -0.0000 N   0  0  0  0  0  0  0  0  0  0  0  0
   -9.2277    1.0227   -0.0000 C   0  0  0  0  0  0  0  0  0  0  0  0
    7.7532    2.9728   -0.0000 C   0  0  0  0  0  0  0  0  0  0  0  0
    6.4095    0.7373   -0.0000 C   0  0  0  0  0  0  0  0  0  0  0  0
  -11.8081    2.5685   -0.0000 C   0  0  0  0  0  0  0  0  0  0  0  0
   -7.9434    0.2616   -0.0000 C   0  0  0  0  0  0  0  0  0  0  0  0
    7.7651    4.4949   -0.0000 O   0  0  0  0  0  0  0  0  0  0  0  0
    9.0256    2.2118   -0.0000 N   0  0  0  0  0  0  0  0  0  0  0  0
    7.6937   -0.0119   -0.0000 C   0  0  0  0  0  0  0  0  0  0  0  0
  -11.8438    1.0821   -0.0000 O   0  0  0  0  0  0  0  0  0  0  0  0
  -13.1043    3.3534   -0.0000 C   0  0  0  0  0  0  0  0  0  0  0  0
   -7.9672   -1.2248   -0.0000 C   0  0  0  0  0  0  0  0  0  0  0  0
   -6.6354    1.0108   -0.0000 C   0  0  0  0  0  0  0  0  0  0  0  0
   10.3336    2.9491   -0.0000 C   0  0  0  0  0  0  0  0  0  0  0  0
    7.6580   -1.5102   -0.0000 C   0  0  0  0  0  0  0  0  0  0  0  0
  -14.4361    2.6399   -0.0000 N   0  0  0  0  0  0  0  0  0  0  0  0
  -13.0924    4.8755   -0.0000 C   0  0  0  0  0  0  0  0  0  0  0  0
   11.6060    2.1880   -0.0000 C   0  0  0  0  0  0  0  0  0  0  0  0
    8.9304   -2.2713   -0.0000 O   0  0  0  0  0  0  0  0  0  0  0  0
    6.3262   -2.2356   -0.0000 N   0  0  0  0  0  0  0  0  0  0  0  0
  -15.7323    3.4247   -0.0000 C   0  0  0  0  0  0  0  0  0  0  0  0
  -11.7844    5.6127   -0.0000 C   0  0  0  0  0  0  0  0  0  0  0  0
   11.5703    0.7016   -0.0000 O   0  0  0  0  0  0  0  0  0  0  0  0
   12.9140    2.9372   -0.0000 N   0  0  0  0  0  0  0  0  0  0  0  0
  -15.7204    4.9468   -0.0000 O   0  0  0  0  0  0  0  0  0  0  0  0
  -17.0641    2.7112   -0.0000 C   0  0  0  0  0  0  0  0  0  0  0  0
  -11.7606    7.1348   -0.0000 C   0  0  0  0  0  0  0  0  0  0  0  0
   14.1983    2.1761   -0.0000 C   0  0  0  0  0  0  0  0  0  0  0  0
  -18.3484    3.4961   -0.0000 N   0  0  0  0  0  0  0  0  0  0  0  0
  -17.0998    1.2129   -0.0000 C   0  0  0  0  0  0  0  0  0  0  0  0
  -10.4763    7.8721   -0.0000 O   0  0  0  0  0  0  0  0  0  0  0  0
  -13.0805    7.9078   -0.0000 O   0  0  0  0  0  0  0  0  0  0  0  0
   15.4945    2.9134   -0.0000 C   0  0  0  0  0  0  0  0  0  0  0  0
   14.1626    0.6897   -0.0000 C   0  0  0  0  0  0  0  0  0  0  0  0
  -19.6921    2.7826   -0.0000 C   0  0  0  0  0  0  0  0  0  0  0  0
  -15.8274    0.4519   -0.0000 S   0  0  0  0  0  0  0  0  0  0  0  0
   15.5064    4.4236   -0.0000 O   0  0  0  0  0  0  0  0  0  0  0  0
   16.7787    2.1523   -0.0000 N   0  0  0  0  0  0  0  0  0  0  0  0
   15.4469   -0.0713   -0.0000 O   0  0  0  0  0  0  0  0  0  0  0  0
   12.8308   -0.0357   -0.0000 C   0  0  0  0  0  0  0  0  0  0  0  0
  -19.7159    1.2843   -0.0000 O   0  0  0  0  0  0  0  0  0  0  0  0
  -20.9883    3.5674   -0.0000 C   0  0  0  0  0  0  0  0  0  0  0  0
   18.0749    2.8896   -0.0000 C   0  0  0  0  0  0  0  0  0  0  0  0
  -22.3082    2.8539   -0.0000 N   0  0  0  0  0  0  0  0  0  0  0  0
  -20.9645    5.0776   -0.0000 C   0  0  0  0  0  0  0  0  0  0  0  0
   19.3592    2.1286   -0.0000 C   0  0  0  0  0  0  0  0  0  0  0  0
  -23.6163    3.6388   -0.0000 C   0  0  0  0  0  0  0  0  0  0  0  0
  -19.6802    5.8149   -0.0000 C   0  0  0  0  0  0  0  0  0  0  0  0
   19.3235    0.6421   -0.0000 O   0  0  0  0  0  0  0  0  0  0  0  0
   20.6553    2.8658   -0.0000 N   0  0  0  0  0  0  0  0  0  0  0  0
  -23.5925    5.1490   -0.0000 O   0  0  0  0  0  0  0  0  0  0  0  0
  -24.9362    2.9253   -0.0000 C   0  0  0  0  0  0  0  0  0  0  0  0
  -19.6564    7.3251   -0.0000 C   0  0  0  0  0  0  0  0  0  0  0  0
  -18.3960    5.0538   -0.0000 C   0  0  0  0  0  0  0  0  0  0  0  0
   21.9396    2.1048   -0.0000 C   0  0  0  0  0  0  0  0  0  0  0  0
  -26.2443    3.7101   -0.0000 N   0  0  0  0  0  0  0  0  0  0  0  0
  -24.9838    1.4389   -0.0000 C   0  0  0  0  0  0  0  0  0  0  0  0
   23.2357    2.8420   -0.0000 C   0  0  0  0  0  0  0  0  0  0  0  0
   21.9039    0.6184   -0.0000 C   0  0  0  0  0  0  0  0  0  0  0  0
  -27.5642    2.9966   -0.0000 C   0  0  0  0  0  0  0  0  0  0  0  0
  -23.6995    0.6778   -0.0000 C   0  0  0  0  0  0  0  0  0  0  0  0
   23.2476    4.3522   -0.0000 O   0  0  0  0  0  0  0  0  0  0  0  0
   24.5200    2.0810   -0.0000 N   0  0  0  0  0  0  0  0  0  0  0  0
   23.1882   -0.1427   -0.0000 C   0  0  0  0  0  0  0  0  0  0  0  0
  -27.6118    1.5102   -0.0000 O   0  0  0  0  0  0  0  0  0  0  0  0
  -28.8604    3.7815   -0.0000 C   0  0  0  0  0  0  0  0  0  0  0  0
  -23.7471   -0.8205   -0.0000 C   0  0  0  0  0  0  0  0  0  0  0  0
   25.8162    2.8183   -0.0000 C   0  0  0  0  0  0  0  0  0  0  0  0
   23.1525   -1.6410   -0.0000 O   0  0  0  0  0  0  0  0  0  0  0  0
   24.4843    0.5946   -0.0000 O   0  0  0  0  0  0  0  0  0  0  0  0
  -30.1922    3.0561   -0.0000 N   0  0  0  0  0  0  0  0  0  0  0  0
  -28.8604    5.2917   -0.0000 C   0  0  0  0  0  0  0  0  0  0  0  0
  -22.4628   -1.5697   -0.0000 N   0  0  0  0  0  0  0  0  0  0  0  0
   27.1004    2.0691   -0.0000 C   0  0  0  0  0  0  0  0  0  0  0  0
   25.8281    4.3404   -0.0000 C   0  0  0  0  0  0  0  0  0  0  0  0
  -27.5523    6.0408   -0.0000 C   0  0  0  0  0  0  0  0  0  0  0  0
  -22.4866   -3.0680   -0.0000 C   0  0  0  0  0  0  0  0  0  0  0  0
   27.0648    0.5708   -0.0000 O   0  0  0  0  0  0  0  0  0  0  0  0
   28.4085    2.8064   -0.0000 N   0  0  0  0  0  0  0  0  0  0  0  0
   27.1242    5.0776   -0.0000 C   0  0  0  0  0  0  0  0  0  0  0  0
   24.5200    5.1252   -0.0000 C   0  0  0  0  0  0  0  0  0  0  0  0
  -27.5285    7.5629   -0.0000 O   0  0  0  0  0  0  0  0  0  0  0  0
  -26.2680    5.2798   -0.0000 N   0  0  0  0  0  0  0  0  0  0  0  0
  -21.2142   -3.8290   -0.0000 N   0  0  0  0  0  0  0  0  0  0  0  0
  -23.8065   -3.7815   -0.0000 N   0  0  0  0  0  0  0  0  0  0  0  0
   29.6809    2.0453   -0.0000 C   0  0  0  0  0  0  0  0  0  0  0  0
   30.9889    2.7826   -0.0000 C   0  0  0  0  0  0  0  0  0  0  0  0
   29.6452    0.5470   -0.0000 C   0  0  0  0  0  0  0  0  0  0  0  0
   31.0008    4.3047   -0.0000 O   0  0  0  0  0  0  0  0  0  0  0  0
   32.2613    2.0215   -0.0000 N   0  0  0  0  0  0  0  0  0  0  0  0
   30.9176   -0.2140   -0.0000 C   0  0  0  0  0  0  0  0  0  0  0  0
   33.5694    2.7588   -0.0000 C   0  0  0  0  0  0  0  0  0  0  0  0
   30.8819   -1.7124   -0.0000 C   0  0  0  0  0  0  0  0  0  0  0  0
   34.8417    1.9978   -0.0000 C   0  0  0  0  0  0  0  0  0  0  0  0
   33.5812    4.2809   -0.0000 C   0  0  0  0  0  0  0  0  0  0  0  0
   32.1543   -2.4734   -0.0000 C   0  0  0  0  0  0  0  0  0  0  0  0
   34.8061    0.5113   -0.0000 O   0  0  0  0  0  0  0  0  0  0  0  0
   36.1498    2.7469   -0.0000 N   0  0  0  0  0  0  0  0  0  0  0  0
   32.1186   -3.9598   -0.0000 N   0  0  0  0  0  0  0  0  0  0  0  0
   37.4340    1.9859   -0.0000 C   0  0  0  0  0  0  0  0  0  0  0  0
   38.7302    2.7231   -0.0000 C   0  0  0  0  0  0  0  0  0  0  0  0
   37.3984    0.4994   -0.0000 C   0  0  0  0  0  0  0  0  0  0  0  0
   38.7421    4.2333   -0.0000 O   0  0  0  0  0  0  0  0  0  0  0  0
   40.0145    1.9621   -0.0000 N   0  0  0  0  0  0  0  0  0  0  0  0
   38.6826   -0.2616   -0.0000 S   0  0  0  0  0  0  0  0  0  0  0  0
   41.3106    2.6993   -0.0000 C   0  0  0  0  0  0  0  0  0  0  0  0
   42.5949    1.9383   -0.0000 C   0  0  0  0  0  0  0  0  0  0  0  0
   41.3225    4.2095   -0.0000 C   0  0  0  0  0  0  0  0  0  0  0  0
   42.5592    0.4519   -0.0000 O   0  0  0  0  0  0  0  0  0  0  0  0
   43.8911    2.6756   -0.0000 N   0  0  0  0  0  0  0  0  0  0  0  0
   42.6187    4.9587   -0.0000 C   0  0  0  0  0  0  0  0  0  0  0  0
   45.1753    1.9145   -0.0000 C   0  0  0  0  0  0  0  0  0  0  0  0
   42.6306    6.4689   -0.0000 C   0  0  0  0  0  0  0  0  0  0  0  0
   46.4715    2.6518   -0.0000 C   0  0  0  0  0  0  0  0  0  0  0  0
   45.1397    0.4281   -0.0000 C   0  0  0  0  0  0  0  0  0  0  0  0
   43.9267    7.2062   -0.0000 O   0  0  0  0  0  0  0  0  0  0  0  0
   41.3225    7.2537   -0.0000 O   0  0  0  0  0  0  0  0  0  0  0  0
   46.4834    4.1620   -0.0000 O   0  0  0  0  0  0  0  0  0  0  0  0
   47.7558    1.8907   -0.0000 N   0  0  0  0  0  0  0  0  0  0  0  0
   46.4239   -0.3330   -0.0000 C   0  0  0  0  0  0  0  0  0  0  0  0
   49.0519    2.6280   -0.0000 C   0  0  0  0  0  0  0  0  0  0  0  0
   46.5428   -1.8194   -0.0000 C   0  0  0  0  0  0  0  0  0  0  0  0
   47.7914    0.2735   -0.0000 C   0  0  0  0  0  0  0  0  0  0  0  0
   50.3362    1.8669   -0.0000 C   0  0  0  0  0  0  0  0  0  0  0  0
   49.0638    4.1382   -0.0000 C   0  0  0  0  0  0  0  0  0  0  0  0
   47.9936   -2.1404   -0.0000 C   0  0  0  0  0  0  0  0  0  0  0  0
   45.5083   -2.9134   -0.0000 C   0  0  0  0  0  0  0  0  0  0  0  0
   48.7665   -0.8443   -0.0000 N   0  0  0  0  0  0  0  0  0  0  0  0
   50.3005    0.3686   -0.0000 O   0  0  0  0  0  0  0  0  0  0  0  0
   51.6324    2.6042   -0.0000 N   0  0  0  0  0  0  0  0  0  0  0  0
   48.4217   -3.5674   -0.0000 C   0  0  0  0  0  0  0  0  0  0  0  0
   45.9364   -4.3404   -0.0000 C   0  0  0  0  0  0  0  0  0  0  0  0
   52.9166    1.8551   -0.0000 C   0  0  0  0  0  0  0  0  0  0  0  0
   47.3871   -4.6614   -0.0000 C   0  0  0  0  0  0  0  0  0  0  0  0
   54.2247    2.5923   -0.0000 C   0  0  0  0  0  0  0  0  0  0  0  0
   52.8809    0.3567   -0.0000 C   0  0  0  0  0  0  0  0  0  0  0  0
   54.2366    4.1144   -0.0000 O   0  0  0  0  0  0  0  0  0  0  0  0
   55.4970    1.8313   -0.0000 N   0  0  0  0  0  0  0  0  0  0  0  0
   54.1652   -0.3924   -0.0000 S   0  0  0  0  0  0  0  0  0  0  0  0
   56.8051    2.5685   -0.0000 C   0  0  0  0  0  0  0  0  0  0  0  0
   58.0775    1.8075   -0.0000 C   0  0  0  0  0  0  0  0  0  0  0  0
   56.8170    4.0906   -0.0000 C   0  0  0  0  0  0  0  0  0  0  0  0
   58.0418    0.3211   -0.0000 O   0  0  0  0  0  0  0  0  0  0  0  0
   59.3855    2.5566   -0.0000 O   0  0  0  0  0  0  0  0  0  0  0  0
   58.1250    4.8279   -0.0000 C   0  0  0  0  0  0  0  0  0  0  0  0
   58.1369    6.3500   -0.0000 C   0  0  0  0  0  0  0  0  0  0  0  0
   59.4450    7.0873   -0.0000 O   0  0  0  0  0  0  0  0  0  0  0  0
   56.8408    7.1348   -0.0000 N   0  0  0  0  0  0  0  0  0  0  0  0
  1  2  1  0  0  0  0
  2  3  1  0  0  0  0
  3  4  1  6  0  0  0
  3  5  1  0  0  0  0
  4  6  1  0  0  0  0
  5  7  2  0  0  0  0
  5  8  1  0  0  0  0
  6  9  2  0  0  0  0
  6 10  1  0  0  0  0
 11  8  1  1  0  0  0
 10 12  1  1  0  0  0
 10 13  1  0  0  0  0
 11 14  1  0  0  0  0
 11 15  1  0  0  0  0
 12 16  1  0  0  0  0
 13 17  1  0  0  0  0
 14 18  2  0  0  0  0
 14 19  1  0  0  0  0
 15 20  1  0  0  0  0
 15 21  1  6  0  0  0
 16 22  2  0  0  0  0
 16 23  1  0  0  0  0
 17 24  1  0  0  0  0
 17 25  1  0  0  0  0
 26 19  1  6  0  0  0
 20 27  1  0  0  0  0
 23 28  1  6  0  0  0
 23 29  1  0  0  0  0
 26 30  1  0  0  0  0
 26 31  1  0  0  0  0
 28 32  1  0  0  0  0
 29 33  1  0  0  0  0
 30 34  2  0  0  0  0
 30 35  1  0  0  0  0
 31 36  1  0  0  0  0
 32 37  2  0  0  0  0
 32 38  1  0  0  0  0
 33 39  1  0  0  0  0
 33 40  1  0  0  0  0
 35 41  1  0  0  0  0
 36 42  1  0  0  0  0
 38 43  1  1  0  0  0
 38 44  1  0  0  0  0
 41 45  1  0  0  0  0
 42 46  2  0  0  0  0
 42 47  1  0  0  0  0
 43 48  1  0  0  0  0
 44 49  1  0  0  0  0
 45 50  2  0  0  0  0
 45 51  1  0  0  0  0
 48 52  2  0  0  0  0
 48 53  1  0  0  0  0
 49 54  1  0  0  0  0
 55 51  1  6  0  0  0
 53 56  1  6  0  0  0
 53 57  1  0  0  0  0
 54 58  2  0  0  0  0
 54 59  1  0  0  0  0
 55 60  1  0  0  0  0
 55 61  1  0  0  0  0
 56 62  1  0  0  0  0
 57 63  1  0  0  0  0
 60 64  2  0  0  0  0
 60 65  1  0  0  0  0
 61 66  1  6  0  0  0
 61 67  1  0  0  0  0
 62 68  2  0  0  0  0
 62 69  1  0  0  0  0
 65 70  1  0  0  0  0
 69 71  1  1  0  0  0
 69 72  1  0  0  0  0
 70 73  1  0  0  0  0
 71 74  1  0  0  0  0
 72 75  1  0  0  0  0
 73 76  2  0  0  0  0
 73 77  1  0  0  0  0
 74 78  2  0  0  0  0
 74 79  1  0  0  0  0
 75 80  1  0  0  0  0
 75 81  1  0  0  0  0
 82 77  1  6  0  0  0
 79 83  1  6  0  0  0
 79 84  1  0  0  0  0
 82 85  1  0  0  0  0
 82 86  1  0  0  0  0
 83 87  1  0  0  0  0
 84 88  1  0  0  0  0
 85 89  2  0  0  0  0
 85 90  1  0  0  0  0
 86 91  1  0  0  0  0
 87 92  2  0  0  0  0
 87 93  1  0  0  0  0
 88 94  1  0  0  0  0
 95 90  1  1  0  0  0
 91 96  2  0  0  0  0
 91 97  1  0  0  0  0
 93 98  1  1  0  0  0
 93 99  1  0  0  0  0
 94100  1  0  0  0  0
 95101  1  0  0  0  0
 95102  1  0  0  0  0
 99103  1  0  0  0  0
100104  1  0  0  0  0
101105  2  0  0  0  0
101106  1  0  0  0  0
102107  1  0  0  0  0
102108  1  0  0  0  0
103109  2  0  0  0  0
103110  1  0  0  0  0
104111  2  0  0  0  0
104112  1  0  0  0  0
113106  1  6  0  0  0
113114  1  0  0  0  0
113115  1  0  0  0  0
114116  2  0  0  0  0
114117  1  0  0  0  0
115118  1  0  0  0  0
119117  1  1  0  0  0
118120  1  0  0  0  0
119121  1  0  0  0  0
119122  1  0  0  0  0
120123  1  0  0  0  0
121124  2  0  0  0  0
121125  1  0  0  0  0
123126  1  0  0  0  0
127125  1  6  0  0  0
127128  1  0  0  0  0
127129  1  0  0  0  0
128130  2  0  0  0  0
128131  1  0  0  0  0
129132  1  0  0  0  0
133131  1  1  0  0  0
133134  1  0  0  0  0
133135  1  0  0  0  0
134136  2  0  0  0  0
134137  1  0  0  0  0
135138  1  0  0  0  0
139137  1  6  0  0  0
138140  1  0  0  0  0
139141  1  0  0  0  0
139142  1  0  0  0  0
140143  2  0  0  0  0
140144  1  0  0  0  0
141145  2  0  0  0  0
141146  1  0  0  0  0
142147  1  0  0  0  0
148146  1  1  0  0  0
147149  1  0  0  0  0
147150  2  0  0  0  0
148151  1  0  0  0  0
148152  1  0  0  0  0
149153  2  0  0  0  0
149154  1  0  0  0  0
150155  1  0  0  0  0
151156  2  0  0  0  0
151157  1  0  0  0  0
153158  1  0  0  0  0
154159  2  0  0  0  0
160157  1  6  0  0  0
158161  2  0  0  0  0
160162  1  0  0  0  0
160163  1  0  0  0  0
162164  2  0  0  0  0
162165  1  0  0  0  0
163166  1  0  0  0  0
167165  1  1  0  0  0
167168  1  0  0  0  0
167169  1  0  0  0  0
168170  2  0  0  0  0
168171  1  0  0  0  0
169172  1  0  0  0  0
172173  1  0  0  0  0
173174  2  0  0  0  0
173175  1  0  0  0  0
153155  1  0  0  0  0
159161  1  0  0  0  0
M  END
>  <MolRegNo>
1625075

>  <m>
=

>  <Value>
13000

>  <Unit>
nM

>  <Type>
Ki

>  <pValue>
4.89

>  <Ligand Efficiency>
0

>  <Binding Efficiency>
1.91

>  <Surface Efficiency>
0

>  <Assay Index>
831551

>  <Assay Category>


>  <Assay Organism>
Homo sapiens

>  <Target ID>
56

>  <Target Name>
Androgen Receptor

>  <Target Organism>
Homo sapiens

>  <Target Description>
Target is a single protein chain

>  <Sequence Accession>
P10275

>  <Reference>
Medchemcomm 4 (1), 187-192 (2013)

>  <Pubmed ID>


>  <DOI>
10.1039/C2MD20182H

$$$$
1625074
Actelion Java MolfileCreator 1.0

182185  0  0  0  0  0  0  0  0999 V2000
    0.0000   -0.0000   -0.0000 S   0  0  0  0  0  0  0  0  0  0  0  0
   -1.3108    0.7626   -0.0000 C   0  0  0  0  0  0  0  0  0  0  0  0
   -1.3227    2.2760   -0.0000 C   0  0  0  0  0  0  0  0  0  0  0  0
   -2.6335    3.0386   -0.0000 N   0  0  0  0  0  0  0  0  0  0  0  0
   -0.0357    3.0386   -0.0000 C   0  0  0  0  0  0  0  0  0  0  0  0
   -3.9442    2.2998   -0.0000 C   0  0  0  0  0  0  0  0  0  0  0  0
   -0.0477    4.5520   -0.0000 O   0  0  0  0  0  0  0  0  0  0  0  0
    1.2512    2.2998   -0.0000 N   0  0  0  0  0  0  0  0  0  0  0  0
   -3.9562    0.8103   -0.0000 O   0  0  0  0  0  0  0  0  0  0  0  0
   -5.2550    3.0624   -0.0000 C   0  0  0  0  0  0  0  0  0  0  0  0
    2.5381    3.0624   -0.0000 C   0  0  0  0  0  0  0  0  0  0  0  0
   -6.5658    2.3236   -0.0000 N   0  0  0  0  0  0  0  0  0  0  0  0
   -5.2669    4.5877   -0.0000 C   0  0  0  0  0  0  0  0  0  0  0  0
    3.8251    2.3236   -0.0000 C   0  0  0  0  0  0  0  0  0  0  0  0
    2.5262    4.5758   -0.0000 C   0  0  0  0  0  0  0  0  0  0  0  0
   -7.8766    3.0863   -0.0000 C   0  0  0  0  0  0  0  0  0  0  0  0
   -3.9800    5.3503   -0.0000 C   0  0  0  0  0  0  0  0  0  0  0  0
    3.8132    0.8341   -0.0000 O   0  0  0  0  0  0  0  0  0  0  0  0
    5.1120    3.0863   -0.0000 N   0  0  0  0  0  0  0  0  0  0  0  0
    1.2154    5.3384   -0.0000 C   0  0  0  0  0  0  0  0  0  0  0  0
    3.8132    5.3384   -0.0000 C   0  0  0  0  0  0  0  0  0  0  0  0
   -7.8885    4.5996   -0.0000 O   0  0  0  0  0  0  0  0  0  0  0  0
   -9.1873    2.3475   -0.0000 C   0  0  0  0  0  0  0  0  0  0  0  0
   -2.6930    4.6115   -0.0000 C   0  0  0  0  0  0  0  0  0  0  0  0
   -3.9919    6.8637   -0.0000 C   0  0  0  0  0  0  0  0  0  0  0  0
    6.3990    2.3475   -0.0000 C   0  0  0  0  0  0  0  0  0  0  0  0
    1.2035    6.8518   -0.0000 C   0  0  0  0  0  0  0  0  0  0  0  0
  -10.5100    3.1101   -0.0000 N   0  0  0  0  0  0  0  0  0  0  0  0
   -9.1993    0.8580   -0.0000 C   0  0  0  0  0  0  0  0  0  0  0  0
   -1.4061    5.3742   -0.0000 C   0  0  0  0  0  0  0  0  0  0  0  0
   -2.7169    7.6263   -0.0000 C   0  0  0  0  0  0  0  0  0  0  0  0
    7.6859    3.1101   -0.0000 C   0  0  0  0  0  0  0  0  0  0  0  0
    6.3871    0.8580   -0.0000 C   0  0  0  0  0  0  0  0  0  0  0  0
  -11.8208    2.3713   -0.0000 C   0  0  0  0  0  0  0  0  0  0  0  0
   -7.9123    0.1192   -0.0000 C   0  0  0  0  0  0  0  0  0  0  0  0
   -1.4180    6.8875   -0.0000 C   0  0  0  0  0  0  0  0  0  0  0  0
    7.6740    4.6235   -0.0000 O   0  0  0  0  0  0  0  0  0  0  0  0
    8.9848    2.3713   -0.0000 N   0  0  0  0  0  0  0  0  0  0  0  0
    7.6740    0.1192   -0.0000 C   0  0  0  0  0  0  0  0  0  0  0  0
  -11.8327    0.8818   -0.0000 O   0  0  0  0  0  0  0  0  0  0  0  0
  -13.1435    3.1339   -0.0000 C   0  0  0  0  0  0  0  0  0  0  0  0
   -7.9242   -1.3704   -0.0000 C   0  0  0  0  0  0  0  0  0  0  0  0
   -6.6254    0.8818   -0.0000 C   0  0  0  0  0  0  0  0  0  0  0  0
   10.2717    3.1339   -0.0000 C   0  0  0  0  0  0  0  0  0  0  0  0
    7.6621   -1.3704   -0.0000 C   0  0  0  0  0  0  0  0  0  0  0  0
  -14.4543    2.3951   -0.0000 N   0  0  0  0  0  0  0  0  0  0  0  0
  -13.1554    4.6473   -0.0000 C   0  0  0  0  0  0  0  0  0  0  0  0
   11.5706    2.3951   -0.0000 C   0  0  0  0  0  0  0  0  0  0  0  0
    8.9490   -2.1092   -0.0000 O   0  0  0  0  0  0  0  0  0  0  0  0
    6.3394   -2.1092   -0.0000 N   0  0  0  0  0  0  0  0  0  0  0  0
  -15.7770    3.1578   -0.0000 C   0  0  0  0  0  0  0  0  0  0  0  0
  -11.8566    5.4099   -0.0000 C   0  0  0  0  0  0  0  0  0  0  0  0
   11.5587    0.8937   -0.0000 O   0  0  0  0  0  0  0  0  0  0  0  0
   12.8575    3.1578   -0.0000 N   0  0  0  0  0  0  0  0  0  0  0  0
  -15.7889    4.6711   -0.0000 O   0  0  0  0  0  0  0  0  0  0  0  0
  -17.0877    2.4190   -0.0000 C   0  0  0  0  0  0  0  0  0  0  0  0
  -11.8685    6.9233   -0.0000 C   0  0  0  0  0  0  0  0  0  0  0  0
   14.1564    2.4190   -0.0000 C   0  0  0  0  0  0  0  0  0  0  0  0
  -18.4104    3.1816   -0.0000 N   0  0  0  0  0  0  0  0  0  0  0  0
  -17.0997    0.9295   -0.0000 C   0  0  0  0  0  0  0  0  0  0  0  0
  -10.5696    7.6978   -0.0000 O   0  0  0  0  0  0  0  0  0  0  0  0
  -13.1793    7.6859   -0.0000 O   0  0  0  0  0  0  0  0  0  0  0  0
   15.4433    3.1816   -0.0000 C   0  0  0  0  0  0  0  0  0  0  0  0
   14.1445    0.9175   -0.0000 C   0  0  0  0  0  0  0  0  0  0  0  0
  -19.7212    2.4428   -0.0000 C   0  0  0  0  0  0  0  0  0  0  0  0
  -15.8127    0.1907   -0.0000 S   0  0  0  0  0  0  0  0  0  0  0  0
   15.4314    4.6950   -0.0000 O   0  0  0  0  0  0  0  0  0  0  0  0
   16.7422    2.4428   -0.0000 N   0  0  0  0  0  0  0  0  0  0  0  0
   15.4314    0.1787   -0.0000 O   0  0  0  0  0  0  0  0  0  0  0  0
   12.8218    0.1787   -0.0000 C   0  0  0  0  0  0  0  0  0  0  0  0
  -19.7331    0.9533   -0.0000 O   0  0  0  0  0  0  0  0  0  0  0  0
  -21.0439    3.2054   -0.0000 C   0  0  0  0  0  0  0  0  0  0  0  0
   18.0291    3.2054   -0.0000 C   0  0  0  0  0  0  0  0  0  0  0  0
  -22.3547    2.4666   -0.0000 N   0  0  0  0  0  0  0  0  0  0  0  0
  -21.0558    4.7188   -0.0000 C   0  0  0  0  0  0  0  0  0  0  0  0
   19.3280    2.4666   -0.0000 C   0  0  0  0  0  0  0  0  0  0  0  0
  -23.6774    3.2293   -0.0000 C   0  0  0  0  0  0  0  0  0  0  0  0
  -19.7570    5.4814   -0.0000 C   0  0  0  0  0  0  0  0  0  0  0  0
   19.3161    0.9771   -0.0000 O   0  0  0  0  0  0  0  0  0  0  0  0
   20.6149    3.2293   -0.0000 N   0  0  0  0  0  0  0  0  0  0  0  0
  -23.6893    4.7426   -0.0000 O   0  0  0  0  0  0  0  0  0  0  0  0
  -24.9881    2.4905   -0.0000 C   0  0  0  0  0  0  0  0  0  0  0  0
  -18.4819    4.7426   -0.0000 C   0  0  0  0  0  0  0  0  0  0  0  0
  -19.7689    6.9948   -0.0000 C   0  0  0  0  0  0  0  0  0  0  0  0
   21.9019    2.4905   -0.0000 C   0  0  0  0  0  0  0  0  0  0  0  0
  -26.3108    3.2531   -0.0000 N   0  0  0  0  0  0  0  0  0  0  0  0
  -25.0001    1.0010   -0.0000 C   0  0  0  0  0  0  0  0  0  0  0  0
  -17.1831    5.5053   -0.0000 C   0  0  0  0  0  0  0  0  0  0  0  0
  -18.4939    7.7574   -0.0000 C   0  0  0  0  0  0  0  0  0  0  0  0
   23.1888    3.2531   -0.0000 C   0  0  0  0  0  0  0  0  0  0  0  0
   21.8900    1.0010   -0.0000 C   0  0  0  0  0  0  0  0  0  0  0  0
  -27.6335    2.5143   -0.0000 C   0  0  0  0  0  0  0  0  0  0  0  0
  -23.7131    0.2622   -0.0000 C   0  0  0  0  0  0  0  0  0  0  0  0
  -17.1950    7.0186   -0.0000 C   0  0  0  0  0  0  0  0  0  0  0  0
   23.1769    4.7665   -0.0000 O   0  0  0  0  0  0  0  0  0  0  0  0
   24.4758    2.5143   -0.0000 N   0  0  0  0  0  0  0  0  0  0  0  0
   23.1769    0.2622   -0.0000 C   0  0  0  0  0  0  0  0  0  0  0  0
  -27.6454    1.0248   -0.0000 O   0  0  0  0  0  0  0  0  0  0  0  0
  -28.9443    3.2769   -0.0000 C   0  0  0  0  0  0  0  0  0  0  0  0
  -23.7250   -1.2393   -0.0000 C   0  0  0  0  0  0  0  0  0  0  0  0
   25.7627    3.2769   -0.0000 C   0  0  0  0  0  0  0  0  0  0  0  0
   23.1650   -1.2274   -0.0000 O   0  0  0  0  0  0  0  0  0  0  0  0
   24.4638    1.0248   -0.0000 O   0  0  0  0  0  0  0  0  0  0  0  0
  -30.2551    2.5381   -0.0000 N   0  0  0  0  0  0  0  0  0  0  0  0
  -28.9562    4.7903   -0.0000 C   0  0  0  0  0  0  0  0  0  0  0  0
  -22.4381   -1.9781   -0.0000 N   0  0  0  0  0  0  0  0  0  0  0  0
   27.0496    2.5262   -0.0000 C   0  0  0  0  0  0  0  0  0  0  0  0
   25.7508    4.7903   -0.0000 C   0  0  0  0  0  0  0  0  0  0  0  0
  -27.6693    5.5529   -0.0000 C   0  0  0  0  0  0  0  0  0  0  0  0
  -22.4500   -3.4676   -0.0000 C   0  0  0  0  0  0  0  0  0  0  0  0
   27.0377    1.0367   -0.0000 O   0  0  0  0  0  0  0  0  0  0  0  0
   28.3366    3.2889   -0.0000 N   0  0  0  0  0  0  0  0  0  0  0  0
   27.0377    5.5529   -0.0000 C   0  0  0  0  0  0  0  0  0  0  0  0
   24.4400    5.5529   -0.0000 C   0  0  0  0  0  0  0  0  0  0  0  0
  -27.6812    7.0782   -0.0000 C   0  0  0  0  0  0  0  0  0  0  0  0
  -21.1631   -4.2064   -0.0000 N   0  0  0  0  0  0  0  0  0  0  0  0
  -23.7727   -4.2183   -0.0000 N   0  0  0  0  0  0  0  0  0  0  0  0
   29.6235    2.5381   -0.0000 C   0  0  0  0  0  0  0  0  0  0  0  0
  -26.3823    7.8408   -0.0000 C   0  0  0  0  0  0  0  0  0  0  0  0
   30.9105    3.3008   -0.0000 C   0  0  0  0  0  0  0  0  0  0  0  0
   29.6116    1.0486   -0.0000 C   0  0  0  0  0  0  0  0  0  0  0  0
  -26.3943    9.3542   -0.0000 N   0  0  0  0  0  0  0  0  0  0  0  0
   30.8986    4.8141   -0.0000 O   0  0  0  0  0  0  0  0  0  0  0  0
   32.1974    2.5620   -0.0000 N   0  0  0  0  0  0  0  0  0  0  0  0
   30.8986    0.3098   -0.0000 C   0  0  0  0  0  0  0  0  0  0  0  0
   33.4844    3.3246   -0.0000 C   0  0  0  0  0  0  0  0  0  0  0  0
   30.8866   -1.1916   -0.0000 C   0  0  0  0  0  0  0  0  0  0  0  0
   34.7832    2.5858   -0.0000 C   0  0  0  0  0  0  0  0  0  0  0  0
   33.4724    4.8380   -0.0000 C   0  0  0  0  0  0  0  0  0  0  0  0
   32.1736   -1.9304   -0.0000 C   0  0  0  0  0  0  0  0  0  0  0  0
   34.7713    1.0963   -0.0000 O   0  0  0  0  0  0  0  0  0  0  0  0
   36.0702    3.3484   -0.0000 N   0  0  0  0  0  0  0  0  0  0  0  0
   32.1617   -3.4199   -0.0000 N   0  0  0  0  0  0  0  0  0  0  0  0
   37.3690    2.6096   -0.0000 C   0  0  0  0  0  0  0  0  0  0  0  0
   38.6560    3.3723   -0.0000 C   0  0  0  0  0  0  0  0  0  0  0  0
   37.3571    1.1201   -0.0000 C   0  0  0  0  0  0  0  0  0  0  0  0
   38.6440    4.8856   -0.0000 O   0  0  0  0  0  0  0  0  0  0  0  0
   39.9548    2.6335   -0.0000 N   0  0  0  0  0  0  0  0  0  0  0  0
   38.6440    0.3813   -0.0000 S   0  0  0  0  0  0  0  0  0  0  0  0
   41.2418    3.3961   -0.0000 C   0  0  0  0  0  0  0  0  0  0  0  0
   42.5406    2.6454   -0.0000 C   0  0  0  0  0  0  0  0  0  0  0  0
   41.2298    4.9095   -0.0000 C   0  0  0  0  0  0  0  0  0  0  0  0
   42.5287    1.1559   -0.0000 O   0  0  0  0  0  0  0  0  0  0  0  0
   43.8276    3.4080   -0.0000 N   0  0  0  0  0  0  0  0  0  0  0  0
   42.5287    5.6721   -0.0000 C   0  0  0  0  0  0  0  0  0  0  0  0
   45.1264    2.6573   -0.0000 C   0  0  0  0  0  0  0  0  0  0  0  0
   42.5168    7.1854   -0.0000 C   0  0  0  0  0  0  0  0  0  0  0  0
   46.4134    3.4199   -0.0000 C   0  0  0  0  0  0  0  0  0  0  0  0
   45.1145    1.1678   -0.0000 C   0  0  0  0  0  0  0  0  0  0  0  0
   43.8037    7.9481   -0.0000 O   0  0  0  0  0  0  0  0  0  0  0  0
   41.2060    7.9481   -0.0000 O   0  0  0  0  0  0  0  0  0  0  0  0
   46.4015    4.9333   -0.0000 O   0  0  0  0  0  0  0  0  0  0  0  0
   47.7122    2.6811   -0.0000 N   0  0  0  0  0  0  0  0  0  0  0  0
   46.4015    0.4290   -0.0000 C   0  0  0  0  0  0  0  0  0  0  0  0
   48.9992    3.4438   -0.0000 C   0  0  0  0  0  0  0  0  0  0  0  0
   46.5444   -1.0605   -0.0000 C   0  0  0  0  0  0  0  0  0  0  0  0
   47.7718    1.0486   -0.0000 C   0  0  0  0  0  0  0  0  0  0  0  0
   50.2861    2.7050   -0.0000 C   0  0  0  0  0  0  0  0  0  0  0  0
   48.9873    4.9571   -0.0000 C   0  0  0  0  0  0  0  0  0  0  0  0
   48.0101   -1.3584   -0.0000 C   0  0  0  0  0  0  0  0  0  0  0  0
   45.5316   -2.1687   -0.0000 C   0  0  0  0  0  0  0  0  0  0  0  0
   48.7609   -0.0596   -0.0000 N   0  0  0  0  0  0  0  0  0  0  0  0
   50.2742    1.2154   -0.0000 O   0  0  0  0  0  0  0  0  0  0  0  0
   51.5731    3.4676   -0.0000 N   0  0  0  0  0  0  0  0  0  0  0  0
   48.4629   -2.7765   -0.0000 C   0  0  0  0  0  0  0  0  0  0  0  0
   45.9725   -3.5868   -0.0000 C   0  0  0  0  0  0  0  0  0  0  0  0
   52.8600    2.7288   -0.0000 C   0  0  0  0  0  0  0  0  0  0  0  0
   47.4382   -3.8847   -0.0000 C   0  0  0  0  0  0  0  0  0  0  0  0
   54.1469    3.4914   -0.0000 C   0  0  0  0  0  0  0  0  0  0  0  0
   52.8481    1.2393   -0.0000 C   0  0  0  0  0  0  0  0  0  0  0  0
   54.1350    5.0048   -0.0000 O   0  0  0  0  0  0  0  0  0  0  0  0
   55.4339    2.7526   -0.0000 N   0  0  0  0  0  0  0  0  0  0  0  0
   54.1350    0.5005   -0.0000 S   0  0  0  0  0  0  0  0  0  0  0  0
   56.7208    3.5153   -0.0000 C   0  0  0  0  0  0  0  0  0  0  0  0
   58.0078    2.7765   -0.0000 C   0  0  0  0  0  0  0  0  0  0  0  0
   56.7089    5.0286   -0.0000 C   0  0  0  0  0  0  0  0  0  0  0  0
   57.9959    1.2869   -0.0000 O   0  0  0  0  0  0  0  0  0  0  0  0
   59.2947    3.5391   -0.0000 O   0  0  0  0  0  0  0  0  0  0  0  0
   57.9959    5.7912   -0.0000 C   0  0  0  0  0  0  0  0  0  0  0  0
   57.9839    7.3046   -0.0000 C   0  0  0  0  0  0  0  0  0  0  0  0
   59.2828    8.0672   -0.0000 O   0  0  0  0  0  0  0  0  0  0  0  0
   56.6732    8.0672   -0.0000 N   0  0  0  0  0  0  0  0  0  0  0  0
  1  2  1  0  0  0  0
  2  3  1  0  0  0  0
  3  4  1  6  0  0  0
  3  5  1  0  0  0  0
  4  6  1  0  0  0  0
  5  7  2  0  0  0  0
  5  8  1  0  0  0  0
  6  9  2  0  0  0  0
  6 10  1  0  0  0  0
 11  8  1  1  0  0  0
 10 12  1  1  0  0  0
 10 13  1  0  0  0  0
 11 14  1  0  0  0  0
 11 15  1  0  0  0  0
 12 16  1  0  0  0  0
 13 17  1  0  0  0  0
 14 18  2  0  0  0  0
 14 19  1  0  0  0  0
 15 20  1  0  0  0  0
 15 21  1  6  0  0  0
 16 22  2  0  0  0  0
 16 23  1  0  0  0  0
 17 24  2  0  0  0  0
 17 25  1  0  0  0  0
 26 19  1  6  0  0  0
 20 27  1  0  0  0  0
 23 28  1  6  0  0  0
 23 29  1  0  0  0  0
 24 30  1  0  0  0  0
 25 31  2  0  0  0  0
 26 32  1  0  0  0  0
 26 33  1  0  0  0  0
 28 34  1  0  0  0  0
 29 35  1  0  0  0  0
 30 36  2  0  0  0  0
 32 37  2  0  0  0  0
 32 38  1  0  0  0  0
 33 39  1  0  0  0  0
 34 40  2  0  0  0  0
 34 41  1  0  0  0  0
 35 42  1  0  0  0  0
 35 43  1  0  0  0  0
 38 44  1  0  0  0  0
 39 45  1  0  0  0  0
 41 46  1  1  0  0  0
 41 47  1  0  0  0  0
 44 48  1  0  0  0  0
 45 49  2  0  0  0  0
 45 50  1  0  0  0  0
 46 51  1  0  0  0  0
 47 52  1  0  0  0  0
 48 53  2  0  0  0  0
 48 54  1  0  0  0  0
 51 55  2  0  0  0  0
 51 56  1  0  0  0  0
 52 57  1  0  0  0  0
 58 54  1  6  0  0  0
 56 59  1  6  0  0  0
 56 60  1  0  0  0  0
 57 61  2  0  0  0  0
 57 62  1  0  0  0  0
 58 63  1  0  0  0  0
 58 64  1  0  0  0  0
 59 65  1  0  0  0  0
 60 66  1  0  0  0  0
 63 67  2  0  0  0  0
 63 68  1  0  0  0  0
 64 69  1  6  0  0  0
 64 70  1  0  0  0  0
 65 71  2  0  0  0  0
 65 72  1  0  0  0  0
 68 73  1  0  0  0  0
 72 74  1  1  0  0  0
 72 75  1  0  0  0  0
 73 76  1  0  0  0  0
 74 77  1  0  0  0  0
 75 78  1  0  0  0  0
 76 79  2  0  0  0  0
 76 80  1  0  0  0  0
 77 81  2  0  0  0  0
 77 82  1  0  0  0  0
 78 83  2  0  0  0  0
 78 84  1  0  0  0  0
 85 80  1  6  0  0  0
 82 86  1  6  0  0  0
 82 87  1  0  0  0  0
 83 88  1  0  0  0  0
 84 89  2  0  0  0  0
 85 90  1  0  0  0  0
 85 91  1  0  0  0  0
 86 92  1  0  0  0  0
 87 93  1  0  0  0  0
 88 94  2  0  0  0  0
 90 95  2  0  0  0  0
 90 96  1  0  0  0  0
 91 97  1  0  0  0  0
 92 98  2  0  0  0  0
 92 99  1  0  0  0  0
 93100  1  0  0  0  0
101 96  1  1  0  0  0
 97102  2  0  0  0  0
 97103  1  0  0  0  0
 99104  1  1  0  0  0
 99105  1  0  0  0  0
100106  1  0  0  0  0
101107  1  0  0  0  0
101108  1  0  0  0  0
105109  1  0  0  0  0
106110  1  0  0  0  0
107111  2  0  0  0  0
107112  1  0  0  0  0
108113  1  0  0  0  0
108114  1  0  0  0  0
109115  1  0  0  0  0
110116  2  0  0  0  0
110117  1  0  0  0  0
118112  1  6  0  0  0
115119  1  0  0  0  0
118120  1  0  0  0  0
118121  1  0  0  0  0
119122  1  0  0  0  0
120123  2  0  0  0  0
120124  1  0  0  0  0
121125  1  0  0  0  0
126124  1  1  0  0  0
125127  1  0  0  0  0
126128  1  0  0  0  0
126129  1  0  0  0  0
127130  1  0  0  0  0
128131  2  0  0  0  0
128132  1  0  0  0  0
130133  1  0  0  0  0
134132  1  6  0  0  0
134135  1  0  0  0  0
134136  1  0  0  0  0
135137  2  0  0  0  0
135138  1  0  0  0  0
136139  1  0  0  0  0
140138  1  1  0  0  0
140141  1  0  0  0  0
140142  1  0  0  0  0
141143  2  0  0  0  0
141144  1  0  0  0  0
142145  1  0  0  0  0
146144  1  6  0  0  0
145147  1  0  0  0  0
146148  1  0  0  0  0
146149  1  0  0  0  0
147150  2  0  0  0  0
147151  1  0  0  0  0
148152  2  0  0  0  0
148153  1  0  0  0  0
149154  1  0  0  0  0
155153  1  1  0  0  0
154156  1  0  0  0  0
154157  2  0  0  0  0
155158  1  0  0  0  0
155159  1  0  0  0  0
156160  2  0  0  0  0
156161  1  0  0  0  0
157162  1  0  0  0  0
158163  2  0  0  0  0
158164  1  0  0  0  0
160165  1  0  0  0  0
161166  2  0  0  0  0
167164  1  6  0  0  0
165168  2  0  0  0  0
167169  1  0  0  0  0
167170  1  0  0  0  0
169171  2  0  0  0  0
169172  1  0  0  0  0
170173  1  0  0  0  0
174172  1  1  0  0  0
174175  1  0  0  0  0
174176  1  0  0  0  0
175177  2  0  0  0  0
175178  1  0  0  0  0
176179  1  0  0  0  0
179180  1  0  0  0  0
180181  2  0  0  0  0
180182  1  0  0  0  0
 31 36  1  0  0  0  0
 89 94  1  0  0  0  0
160162  1  0  0  0  0
166168  1  0  0  0  0
M  END
>  <MolRegNo>
1625074

>  <m>
=

>  <Value>
1900

>  <Unit>
nM

>  <Type>
Ki

>  <pValue>
5.72

>  <Ligand Efficiency>
0

>  <Binding Efficiency>
2.17

>  <Surface Efficiency>
0

>  <Assay Index>
831551

>  <Assay Category>


>  <Assay Organism>
Homo sapiens

>  <Target ID>
56

>  <Target Name>
Androgen Receptor

>  <Target Organism>
Homo sapiens

>  <Target Description>
Target is a single protein chain

>  <Sequence Accession>
P10275

>  <Reference>
Medchemcomm 4 (1), 187-192 (2013)

>  <Pubmed ID>


>  <DOI>
10.1039/C2MD20182H

$$$$
1625073
Actelion Java MolfileCreator 1.0

181184  0  0  0  0  0  0  0  0999 V2000
    0.0000   -0.0000   -0.0000 S   0  0  0  0  0  0  0  0  0  0  0  0
   -1.3114    0.7630   -0.0000 C   0  0  0  0  0  0  0  0  0  0  0  0
   -1.3233    2.2770   -0.0000 C   0  0  0  0  0  0  0  0  0  0  0  0
   -2.6347    3.0400   -0.0000 N   0  0  0  0  0  0  0  0  0  0  0  0
   -0.0358    3.0400   -0.0000 C   0  0  0  0  0  0  0  0  0  0  0  0
   -3.9460    2.3009   -0.0000 C   0  0  0  0  0  0  0  0  0  0  0  0
   -0.0477    4.5540   -0.0000 O   0  0  0  0  0  0  0  0  0  0  0  0
    1.2518    2.3009   -0.0000 N   0  0  0  0  0  0  0  0  0  0  0  0
   -3.9579    0.8107   -0.0000 O   0  0  0  0  0  0  0  0  0  0  0  0
   -5.2574    3.0638   -0.0000 C   0  0  0  0  0  0  0  0  0  0  0  0
    2.5393    3.0638   -0.0000 C   0  0  0  0  0  0  0  0  0  0  0  0
   -6.5688    2.3247   -0.0000 N   0  0  0  0  0  0  0  0  0  0  0  0
   -5.2693    4.5779   -0.0000 C   0  0  0  0  0  0  0  0  0  0  0  0
    3.8268    2.3128   -0.0000 C   0  0  0  0  0  0  0  0  0  0  0  0
    2.5274    4.5779   -0.0000 C   0  0  0  0  0  0  0  0  0  0  0  0
   -7.9040    3.0877   -0.0000 C   0  0  0  0  0  0  0  0  0  0  0  0
   -3.9818    5.3408   -0.0000 C   0  0  0  0  0  0  0  0  0  0  0  0
    3.8149    0.8226   -0.0000 O   0  0  0  0  0  0  0  0  0  0  0  0
    5.1143    3.0758   -0.0000 N   0  0  0  0  0  0  0  0  0  0  0  0
    1.2160    5.3408   -0.0000 C   0  0  0  0  0  0  0  0  0  0  0  0
    3.8149    5.3408   -0.0000 C   0  0  0  0  0  0  0  0  0  0  0  0
   -7.9159    4.6017   -0.0000 O   0  0  0  0  0  0  0  0  0  0  0  0
   -9.2034    2.3485   -0.0000 C   0  0  0  0  0  0  0  0  0  0  0  0
   -2.6943    4.6017   -0.0000 C   0  0  0  0  0  0  0  0  0  0  0  0
   -3.9937    6.8549   -0.0000 C   0  0  0  0  0  0  0  0  0  0  0  0
    6.4138    2.3247   -0.0000 C   0  0  0  0  0  0  0  0  0  0  0  0
    1.2041    6.8549   -0.0000 C   0  0  0  0  0  0  0  0  0  0  0  0
  -10.5148    3.1115   -0.0000 N   0  0  0  0  0  0  0  0  0  0  0  0
   -9.2153    0.8464   -0.0000 C   0  0  0  0  0  0  0  0  0  0  0  0
   -1.4067    5.3647   -0.0000 C   0  0  0  0  0  0  0  0  0  0  0  0
   -2.7181    7.6179   -0.0000 C   0  0  0  0  0  0  0  0  0  0  0  0
    7.7013    3.0877   -0.0000 C   0  0  0  0  0  0  0  0  0  0  0  0
    6.4019    0.8345   -0.0000 C   0  0  0  0  0  0  0  0  0  0  0  0
  -11.8261    2.3724   -0.0000 C   0  0  0  0  0  0  0  0  0  0  0  0
   -7.9397    0.1073   -0.0000 C   0  0  0  0  0  0  0  0  0  0  0  0
   -1.4187    6.8787   -0.0000 C   0  0  0  0  0  0  0  0  0  0  0  0
    7.6894    4.6017   -0.0000 O   0  0  0  0  0  0  0  0  0  0  0  0
    9.0007    2.3485   -0.0000 N   0  0  0  0  0  0  0  0  0  0  0  0
    7.6894    0.0954   -0.0000 C   0  0  0  0  0  0  0  0  0  0  0  0
  -11.8381    0.8703   -0.0000 O   0  0  0  0  0  0  0  0  0  0  0  0
  -13.1375    3.1354   -0.0000 C   0  0  0  0  0  0  0  0  0  0  0  0
   -7.9517   -1.3829   -0.0000 C   0  0  0  0  0  0  0  0  0  0  0  0
   -6.6284    0.8703   -0.0000 C   0  0  0  0  0  0  0  0  0  0  0  0
   10.2883    3.1115   -0.0000 C   0  0  0  0  0  0  0  0  0  0  0  0
    7.6775   -1.4067   -0.0000 C   0  0  0  0  0  0  0  0  0  0  0  0
  -14.4489    2.3962   -0.0000 N   0  0  0  0  0  0  0  0  0  0  0  0
  -13.1494    4.6494   -0.0000 C   0  0  0  0  0  0  0  0  0  0  0  0
   11.5877    2.3724   -0.0000 C   0  0  0  0  0  0  0  0  0  0  0  0
    8.9650   -2.1459   -0.0000 O   0  0  0  0  0  0  0  0  0  0  0  0
    6.3542   -2.1459   -0.0000 O   0  0  0  0  0  0  0  0  0  0  0  0
  -15.7602    3.1592   -0.0000 C   0  0  0  0  0  0  0  0  0  0  0  0
  -11.8619    5.4124   -0.0000 C   0  0  0  0  0  0  0  0  0  0  0  0
   11.5758    0.8822   -0.0000 O   0  0  0  0  0  0  0  0  0  0  0  0
   12.8752    3.1354   -0.0000 N   0  0  0  0  0  0  0  0  0  0  0  0
  -15.7722    4.6732   -0.0000 O   0  0  0  0  0  0  0  0  0  0  0  0
  -17.0597    2.4201   -0.0000 C   0  0  0  0  0  0  0  0  0  0  0  0
  -11.8738    6.9264   -0.0000 C   0  0  0  0  0  0  0  0  0  0  0  0
   14.1747    2.3962   -0.0000 C   0  0  0  0  0  0  0  0  0  0  0  0
  -18.3949    3.1830   -0.0000 N   0  0  0  0  0  0  0  0  0  0  0  0
  -17.0716    0.9299   -0.0000 C   0  0  0  0  0  0  0  0  0  0  0  0
  -10.5863    7.6894   -0.0000 O   0  0  0  0  0  0  0  0  0  0  0  0
  -13.1852    7.6894   -0.0000 O   0  0  0  0  0  0  0  0  0  0  0  0
   15.4622    3.1592   -0.0000 C   0  0  0  0  0  0  0  0  0  0  0  0
   14.1628    0.9060   -0.0000 C   0  0  0  0  0  0  0  0  0  0  0  0
  -19.6943    2.4439   -0.0000 C   0  0  0  0  0  0  0  0  0  0  0  0
  -15.7960    0.1907   -0.0000 S   0  0  0  0  0  0  0  0  0  0  0  0
   15.4503    4.6732   -0.0000 O   0  0  0  0  0  0  0  0  0  0  0  0
   16.7617    2.4201   -0.0000 N   0  0  0  0  0  0  0  0  0  0  0  0
   15.4503    0.1669   -0.0000 O   0  0  0  0  0  0  0  0  0  0  0  0
   12.8395    0.1669   -0.0000 C   0  0  0  0  0  0  0  0  0  0  0  0
  -19.7063    0.9537   -0.0000 O   0  0  0  0  0  0  0  0  0  0  0  0
  -21.0057    3.2069   -0.0000 C   0  0  0  0  0  0  0  0  0  0  0  0
   18.0492    3.1830   -0.0000 C   0  0  0  0  0  0  0  0  0  0  0  0
  -22.3171    2.4678   -0.0000 N   0  0  0  0  0  0  0  0  0  0  0  0
  -21.0176    4.7209   -0.0000 C   0  0  0  0  0  0  0  0  0  0  0  0
   19.3486    2.4320   -0.0000 C   0  0  0  0  0  0  0  0  0  0  0  0
  -23.6404    3.2307   -0.0000 C   0  0  0  0  0  0  0  0  0  0  0  0
  -19.7301    5.4839   -0.0000 C   0  0  0  0  0  0  0  0  0  0  0  0
   19.3367    0.9418   -0.0000 O   0  0  0  0  0  0  0  0  0  0  0  0
   20.6361    3.1950   -0.0000 N   0  0  0  0  0  0  0  0  0  0  0  0
  -23.6523    4.7448   -0.0000 O   0  0  0  0  0  0  0  0  0  0  0  0
  -24.9637    2.4916   -0.0000 C   0  0  0  0  0  0  0  0  0  0  0  0
  -18.4545    4.7448   -0.0000 C   0  0  0  0  0  0  0  0  0  0  0  0
  -19.7420    6.9979   -0.0000 C   0  0  0  0  0  0  0  0  0  0  0  0
   21.9237    2.4439   -0.0000 C   0  0  0  0  0  0  0  0  0  0  0  0
  -26.2750    3.2546   -0.0000 N   0  0  0  0  0  0  0  0  0  0  0  0
  -24.9756    1.0014   -0.0000 C   0  0  0  0  0  0  0  0  0  0  0  0
  -17.1551    5.5077   -0.0000 C   0  0  0  0  0  0  0  0  0  0  0  0
  -18.4664    7.7609   -0.0000 C   0  0  0  0  0  0  0  0  0  0  0  0
   23.2112    3.2069   -0.0000 C   0  0  0  0  0  0  0  0  0  0  0  0
   21.9118    0.9537   -0.0000 C   0  0  0  0  0  0  0  0  0  0  0  0
  -27.5983    2.5154   -0.0000 C   0  0  0  0  0  0  0  0  0  0  0  0
  -23.6761    0.2623   -0.0000 C   0  0  0  0  0  0  0  0  0  0  0  0
  -17.1670    7.0218   -0.0000 C   0  0  0  0  0  0  0  0  0  0  0  0
   23.1993    4.7209   -0.0000 O   0  0  0  0  0  0  0  0  0  0  0  0
   24.4987    2.4678   -0.0000 N   0  0  0  0  0  0  0  0  0  0  0  0
   23.1993    0.2146   -0.0000 C   0  0  0  0  0  0  0  0  0  0  0  0
  -27.6102    1.0253   -0.0000 O   0  0  0  0  0  0  0  0  0  0  0  0
  -28.9097    3.2784   -0.0000 C   0  0  0  0  0  0  0  0  0  0  0  0
  -23.6881   -1.2279   -0.0000 C   0  0  0  0  0  0  0  0  0  0  0  0
   25.7862    3.2307   -0.0000 C   0  0  0  0  0  0  0  0  0  0  0  0
   23.1874   -1.2756   -0.0000 O   0  0  0  0  0  0  0  0  0  0  0  0
   24.4868    0.9776   -0.0000 O   0  0  0  0  0  0  0  0  0  0  0  0
  -30.2210    2.5393   -0.0000 N   0  0  0  0  0  0  0  0  0  0  0  0
  -28.9216    4.8044   -0.0000 C   0  0  0  0  0  0  0  0  0  0  0  0
  -22.4125   -1.9671   -0.0000 N   0  0  0  0  0  0  0  0  0  0  0  0
   27.0738    2.4916   -0.0000 C   0  0  0  0  0  0  0  0  0  0  0  0
   25.7743    4.7448   -0.0000 C   0  0  0  0  0  0  0  0  0  0  0  0
  -27.6222    5.5673   -0.0000 C   0  0  0  0  0  0  0  0  0  0  0  0
  -22.4244   -3.4572   -0.0000 C   0  0  0  0  0  0  0  0  0  0  0  0
   27.0618    1.0014   -0.0000 O   0  0  0  0  0  0  0  0  0  0  0  0
   28.3613    3.2546   -0.0000 N   0  0  0  0  0  0  0  0  0  0  0  0
   27.0618    5.5077   -0.0000 C   0  0  0  0  0  0  0  0  0  0  0  0
   24.4630    5.5077   -0.0000 C   0  0  0  0  0  0  0  0  0  0  0  0
  -27.6341    7.0814   -0.0000 O   0  0  0  0  0  0  0  0  0  0  0  0
  -26.3227    4.8282   -0.0000 N   0  0  0  0  0  0  0  0  0  0  0  0
  -21.1249   -4.1964   -0.0000 N   0  0  0  0  0  0  0  0  0  0  0  0
  -23.7357   -4.1964   -0.0000 N   0  0  0  0  0  0  0  0  0  0  0  0
   29.6488    2.5154   -0.0000 C   0  0  0  0  0  0  0  0  0  0  0  0
   30.9363    3.2784   -0.0000 C   0  0  0  0  0  0  0  0  0  0  0  0
   29.6369    1.0253   -0.0000 C   0  0  0  0  0  0  0  0  0  0  0  0
   30.9244    4.7925   -0.0000 O   0  0  0  0  0  0  0  0  0  0  0  0
   32.2239    2.5393   -0.0000 N   0  0  0  0  0  0  0  0  0  0  0  0
   30.9244    0.2861   -0.0000 C   0  0  0  0  0  0  0  0  0  0  0  0
   33.5114    3.3023   -0.0000 C   0  0  0  0  0  0  0  0  0  0  0  0
   30.9125   -1.2041   -0.0000 C   0  0  0  0  0  0  0  0  0  0  0  0
   34.8108    2.5631   -0.0000 C   0  0  0  0  0  0  0  0  0  0  0  0
   33.4995    4.8163   -0.0000 C   0  0  0  0  0  0  0  0  0  0  0  0
   32.2000   -1.9432   -0.0000 C   0  0  0  0  0  0  0  0  0  0  0  0
   34.7989    1.0729   -0.0000 O   0  0  0  0  0  0  0  0  0  0  0  0
   36.0984    3.3261   -0.0000 N   0  0  0  0  0  0  0  0  0  0  0  0
   32.1881   -3.4453   -0.0000 N   0  0  0  0  0  0  0  0  0  0  0  0
   37.3978    2.5870   -0.0000 C   0  0  0  0  0  0  0  0  0  0  0  0
   38.6853    3.3499   -0.0000 C   0  0  0  0  0  0  0  0  0  0  0  0
   37.3859    1.0968   -0.0000 C   0  0  0  0  0  0  0  0  0  0  0  0
   38.6734    4.8640   -0.0000 O   0  0  0  0  0  0  0  0  0  0  0  0
   39.9848    2.6108   -0.0000 N   0  0  0  0  0  0  0  0  0  0  0  0
   38.6734    0.3576   -0.0000 S   0  0  0  0  0  0  0  0  0  0  0  0
   41.2723    3.3738   -0.0000 C   0  0  0  0  0  0  0  0  0  0  0  0
   42.5717    2.6347   -0.0000 C   0  0  0  0  0  0  0  0  0  0  0  0
   41.2604    4.8878   -0.0000 C   0  0  0  0  0  0  0  0  0  0  0  0
   42.5598    1.1445   -0.0000 O   0  0  0  0  0  0  0  0  0  0  0  0
   43.8593    3.3976   -0.0000 N   0  0  0  0  0  0  0  0  0  0  0  0
   42.5598    5.6508   -0.0000 C   0  0  0  0  0  0  0  0  0  0  0  0
   45.1587    2.6585   -0.0000 C   0  0  0  0  0  0  0  0  0  0  0  0
   42.5479    7.1648   -0.0000 C   0  0  0  0  0  0  0  0  0  0  0  0
   46.4462    3.4215   -0.0000 C   0  0  0  0  0  0  0  0  0  0  0  0
   45.1468    1.1683   -0.0000 C   0  0  0  0  0  0  0  0  0  0  0  0
   43.8354    7.9397   -0.0000 O   0  0  0  0  0  0  0  0  0  0  0  0
   41.2365    7.9278   -0.0000 O   0  0  0  0  0  0  0  0  0  0  0  0
   46.4343    4.9355   -0.0000 O   0  0  0  0  0  0  0  0  0  0  0  0
   47.7457    2.6823   -0.0000 N   0  0  0  0  0  0  0  0  0  0  0  0
   46.4343    0.4292   -0.0000 C   0  0  0  0  0  0  0  0  0  0  0  0
   49.0332    3.4453   -0.0000 C   0  0  0  0  0  0  0  0  0  0  0  0
   46.5774   -1.0610   -0.0000 C   0  0  0  0  0  0  0  0  0  0  0  0
   47.7934    1.0491   -0.0000 C   0  0  0  0  0  0  0  0  0  0  0  0
   50.3207    2.7062   -0.0000 C   0  0  0  0  0  0  0  0  0  0  0  0
   49.0213    4.9594   -0.0000 C   0  0  0  0  0  0  0  0  0  0  0  0
   48.0318   -1.3591   -0.0000 C   0  0  0  0  0  0  0  0  0  0  0  0
   45.5640   -2.1578   -0.0000 C   0  0  0  0  0  0  0  0  0  0  0  0
   48.7829   -0.0596   -0.0000 N   0  0  0  0  0  0  0  0  0  0  0  0
   50.3088    1.2041   -0.0000 O   0  0  0  0  0  0  0  0  0  0  0  0
   51.6083    3.4692   -0.0000 N   0  0  0  0  0  0  0  0  0  0  0  0
   48.4848   -2.7777   -0.0000 C   0  0  0  0  0  0  0  0  0  0  0  0
   46.0171   -3.5765   -0.0000 C   0  0  0  0  0  0  0  0  0  0  0  0
   52.8958    2.7300   -0.0000 C   0  0  0  0  0  0  0  0  0  0  0  0
   47.4596   -3.8745   -0.0000 C   0  0  0  0  0  0  0  0  0  0  0  0
   54.1833    3.4930   -0.0000 C   0  0  0  0  0  0  0  0  0  0  0  0
   52.8839    1.2279   -0.0000 C   0  0  0  0  0  0  0  0  0  0  0  0
   54.1714    5.0070   -0.0000 O   0  0  0  0  0  0  0  0  0  0  0  0
   55.4708    2.7539   -0.0000 N   0  0  0  0  0  0  0  0  0  0  0  0
   54.1714    0.4888   -0.0000 S   0  0  0  0  0  0  0  0  0  0  0  0
   56.7583    3.5168   -0.0000 C   0  0  0  0  0  0  0  0  0  0  0  0
   58.0459    2.7777   -0.0000 C   0  0  0  0  0  0  0  0  0  0  0  0
   56.7464    5.0309   -0.0000 C   0  0  0  0  0  0  0  0  0  0  0  0
   58.0340    1.2875   -0.0000 O   0  0  0  0  0  0  0  0  0  0  0  0
   59.3334    3.5407   -0.0000 O   0  0  0  0  0  0  0  0  0  0  0  0
   58.0340    5.8058   -0.0000 C   0  0  0  0  0  0  0  0  0  0  0  0
   58.0220    7.3198   -0.0000 C   0  0  0  0  0  0  0  0  0  0  0  0
   59.3215    8.0828   -0.0000 O   0  0  0  0  0  0  0  0  0  0  0  0
   56.7107    8.0828   -0.0000 N   0  0  0  0  0  0  0  0  0  0  0  0
  1  2  1  0  0  0  0
  2  3  1  0  0  0  0
  3  4  1  6  0  0  0
  3  5  1  0  0  0  0
  4  6  1  0  0  0  0
  5  7  2  0  0  0  0
  5  8  1  0  0  0  0
  6  9  2  0  0  0  0
  6 10  1  0  0  0  0
 11  8  1  1  0  0  0
 10 12  1  1  0  0  0
 10 13  1  0  0  0  0
 11 14  1  0  0  0  0
 11 15  1  0  0  0  0
 12 16  1  0  0  0  0
 13 17  1  0  0  0  0
 14 18  2  0  0  0  0
 14 19  1  0  0  0  0
 15 20  1  0  0  0  0
 15 21  1  6  0  0  0
 16 22  2  0  0  0  0
 16 23  1  0  0  0  0
 17 24  2  0  0  0  0
 17 25  1  0  0  0  0
 26 19  1  6  0  0  0
 20 27  1  0  0  0  0
 23 28  1  6  0  0  0
 23 29  1  0  0  0  0
 24 30  1  0  0  0  0
 25 31  2  0  0  0  0
 26 32  1  0  0  0  0
 26 33  1  0  0  0  0
 28 34  1  0  0  0  0
 29 35  1  0  0  0  0
 30 36  2  0  0  0  0
 32 37  2  0  0  0  0
 32 38  1  0  0  0  0
 33 39  1  0  0  0  0
 34 40  2  0  0  0  0
 34 41  1  0  0  0  0
 35 42  1  0  0  0  0
 35 43  1  0  0  0  0
 38 44  1  0  0  0  0
 39 45  1  0  0  0  0
 41 46  1  1  0  0  0
 41 47  1  0  0  0  0
 44 48  1  0  0  0  0
 45 49  2  0  0  0  0
 45 50  1  0  0  0  0
 46 51  1  0  0  0  0
 47 52  1  0  0  0  0
 48 53  2  0  0  0  0
 48 54  1  0  0  0  0
 51 55  2  0  0  0  0
 51 56  1  0  0  0  0
 52 57  1  0  0  0  0
 58 54  1  6  0  0  0
 56 59  1  6  0  0  0
 56 60  1  0  0  0  0
 57 61  2  0  0  0  0
 57 62  1  0  0  0  0
 58 63  1  0  0  0  0
 58 64  1  0  0  0  0
 59 65  1  0  0  0  0
 60 66  1  0  0  0  0
 63 67  2  0  0  0  0
 63 68  1  0  0  0  0
 64 69  1  6  0  0  0
 64 70  1  0  0  0  0
 65 71  2  0  0  0  0
 65 72  1  0  0  0  0
 68 73  1  0  0  0  0
 72 74  1  1  0  0  0
 72 75  1  0  0  0  0
 73 76  1  0  0  0  0
 74 77  1  0  0  0  0
 75 78  1  0  0  0  0
 76 79  2  0  0  0  0
 76 80  1  0  0  0  0
 77 81  2  0  0  0  0
 77 82  1  0  0  0  0
 78 83  2  0  0  0  0
 78 84  1  0  0  0  0
 85 80  1  6  0  0  0
 82 86  1  6  0  0  0
 82 87  1  0  0  0  0
 83 88  1  0  0  0  0
 84 89  2  0  0  0  0
 85 90  1  0  0  0  0
 85 91  1  0  0  0  0
 86 92  1  0  0  0  0
 87 93  1  0  0  0  0
 88 94  2  0  0  0  0
 90 95  2  0  0  0  0
 90 96  1  0  0  0  0
 91 97  1  0  0  0  0
 92 98  2  0  0  0  0
 92 99  1  0  0  0  0
 93100  1  0  0  0  0
101 96  1  1  0  0  0
 97102  2  0  0  0  0
 97103  1  0  0  0  0
 99104  1  1  0  0  0
 99105  1  0  0  0  0
100106  1  0  0  0  0
101107  1  0  0  0  0
101108  1  0  0  0  0
105109  1  0  0  0  0
106110  1  0  0  0  0
107111  2  0  0  0  0
107112  1  0  0  0  0
108113  1  0  0  0  0
108114  1  0  0  0  0
109115  2  0  0  0  0
109116  1  0  0  0  0
110117  2  0  0  0  0
110118  1  0  0  0  0
119112  1  6  0  0  0
119120  1  0  0  0  0
119121  1  0  0  0  0
120122  2  0  0  0  0
120123  1  0  0  0  0
121124  1  0  0  0  0
125123  1  1  0  0  0
124126  1  0  0  0  0
125127  1  0  0  0  0
125128  1  0  0  0  0
126129  1  0  0  0  0
127130  2  0  0  0  0
127131  1  0  0  0  0
129132  1  0  0  0  0
133131  1  6  0  0  0
133134  1  0  0  0  0
133135  1  0  0  0  0
134136  2  0  0  0  0
134137  1  0  0  0  0
135138  1  0  0  0  0
139137  1  1  0  0  0
139140  1  0  0  0  0
139141  1  0  0  0  0
140142  2  0  0  0  0
140143  1  0  0  0  0
141144  1  0  0  0  0
145143  1  6  0  0  0
144146  1  0  0  0  0
145147  1  0  0  0  0
145148  1  0  0  0  0
146149  2  0  0  0  0
146150  1  0  0  0  0
147151  2  0  0  0  0
147152  1  0  0  0  0
148153  1  0  0  0  0
154152  1  1  0  0  0
153155  1  0  0  0  0
153156  2  0  0  0  0
154157  1  0  0  0  0
154158  1  0  0  0  0
155159  2  0  0  0  0
155160  1  0  0  0  0
156161  1  0  0  0  0
157162  2  0  0  0  0
157163  1  0  0  0  0
159164  1  0  0  0  0
160165  2  0  0  0  0
166163  1  6  0  0  0
164167  2  0  0  0  0
166168  1  0  0  0  0
166169  1  0  0  0  0
168170  2  0  0  0  0
168171  1  0  0  0  0
169172  1  0  0  0  0
173171  1  1  0  0  0
173174  1  0  0  0  0
173175  1  0  0  0  0
174176  2  0  0  0  0
174177  1  0  0  0  0
175178  1  0  0  0  0
178179  1  0  0  0  0
179180  2  0  0  0  0
179181  1  0  0  0  0
 31 36  1  0  0  0  0
 89 94  1  0  0  0  0
159161  1  0  0  0  0
165167  1  0  0  0  0
M  END
>  <MolRegNo>
1625073

>  <m>
=

>  <Value>
2100

>  <Unit>
nM

>  <Type>
Ki

>  <pValue>
5.68

>  <Ligand Efficiency>
0

>  <Binding Efficiency>
2.16

>  <Surface Efficiency>
0

>  <Assay Index>
831551

>  <Assay Category>


>  <Assay Organism>
Homo sapiens

>  <Target ID>
56

>  <Target Name>
Androgen Receptor

>  <Target Organism>
Homo sapiens

>  <Target Description>
Target is a single protein chain

>  <Sequence Accession>
P10275

>  <Reference>
Medchemcomm 4 (1), 187-192 (2013)

>  <Pubmed ID>


>  <DOI>
10.1039/C2MD20182H

$$$$
1625072
Actelion Java MolfileCreator 1.0

185188  0  0  0  0  0  0  0  0999 V2000
    0.0000   -0.0000   -0.0000 S   0  0  0  0  0  0  0  0  0  0  0  0
   -1.3225    0.7625   -0.0000 C   0  0  0  0  0  0  0  0  0  0  0  0
   -1.3345    2.2876   -0.0000 C   0  0  0  0  0  0  0  0  0  0  0  0
   -2.6451    3.0502   -0.0000 N   0  0  0  0  0  0  0  0  0  0  0  0
   -0.0357    3.0502   -0.0000 C   0  0  0  0  0  0  0  0  0  0  0  0
   -3.9676    2.3115   -0.0000 C   0  0  0  0  0  0  0  0  0  0  0  0
   -0.0477    4.5634   -0.0000 O   0  0  0  0  0  0  0  0  0  0  0  0
    1.2511    2.3115   -0.0000 N   0  0  0  0  0  0  0  0  0  0  0  0
   -3.9796    0.8102   -0.0000 O   0  0  0  0  0  0  0  0  0  0  0  0
   -5.2783    3.0740   -0.0000 C   0  0  0  0  0  0  0  0  0  0  0  0
    2.5498    3.0740   -0.0000 C   0  0  0  0  0  0  0  0  0  0  0  0
   -6.5889    2.3353   -0.0000 N   0  0  0  0  0  0  0  0  0  0  0  0
   -5.2902    4.5872   -0.0000 C   0  0  0  0  0  0  0  0  0  0  0  0
    3.8366    2.3353   -0.0000 C   0  0  0  0  0  0  0  0  0  0  0  0
    2.5379    4.5872   -0.0000 C   0  0  0  0  0  0  0  0  0  0  0  0
   -7.9234    3.0979   -0.0000 C   0  0  0  0  0  0  0  0  0  0  0  0
   -4.0034    5.3498   -0.0000 C   0  0  0  0  0  0  0  0  0  0  0  0
    3.8247    0.8460   -0.0000 O   0  0  0  0  0  0  0  0  0  0  0  0
    5.1234    3.0979   -0.0000 N   0  0  0  0  0  0  0  0  0  0  0  0
    1.2153    5.3498   -0.0000 C   0  0  0  0  0  0  0  0  0  0  0  0
    3.8247    5.3617   -0.0000 C   0  0  0  0  0  0  0  0  0  0  0  0
   -7.9353    4.6110   -0.0000 O   0  0  0  0  0  0  0  0  0  0  0  0
   -9.2221    2.3591   -0.0000 C   0  0  0  0  0  0  0  0  0  0  0  0
   -2.7047    4.5991   -0.0000 C   0  0  0  0  0  0  0  0  0  0  0  0
   -4.0034    6.8629   -0.0000 C   0  0  0  0  0  0  0  0  0  0  0  0
    6.4340    2.3591   -0.0000 C   0  0  0  0  0  0  0  0  0  0  0  0
    1.2034    6.8629   -0.0000 C   0  0  0  0  0  0  0  0  0  0  0  0
  -10.5327    3.1217   -0.0000 N   0  0  0  0  0  0  0  0  0  0  0  0
   -9.2340    0.8698   -0.0000 C   0  0  0  0  0  0  0  0  0  0  0  0
   -1.4179    5.3617   -0.0000 C   0  0  0  0  0  0  0  0  0  0  0  0
   -2.7047    7.6255   -0.0000 C   0  0  0  0  0  0  0  0  0  0  0  0
    7.7089    3.1217   -0.0000 C   0  0  0  0  0  0  0  0  0  0  0  0
    6.4221    0.8698   -0.0000 C   0  0  0  0  0  0  0  0  0  0  0  0
  -11.8433    2.3830   -0.0000 C   0  0  0  0  0  0  0  0  0  0  0  0
   -7.9591    0.1311   -0.0000 C   0  0  0  0  0  0  0  0  0  0  0  0
   -1.4179    6.8749   -0.0000 C   0  0  0  0  0  0  0  0  0  0  0  0
    7.6970    4.6349   -0.0000 O   0  0  0  0  0  0  0  0  0  0  0  0
    8.9957    2.3830   -0.0000 N   0  0  0  0  0  0  0  0  0  0  0  0
    7.6970    0.1311   -0.0000 C   0  0  0  0  0  0  0  0  0  0  0  0
  -11.8552    0.8936   -0.0000 O   0  0  0  0  0  0  0  0  0  0  0  0
  -13.1540    3.1455   -0.0000 C   0  0  0  0  0  0  0  0  0  0  0  0
   -7.9710   -1.3583   -0.0000 C   0  0  0  0  0  0  0  0  0  0  0  0
   -6.6604    0.8936   -0.0000 C   0  0  0  0  0  0  0  0  0  0  0  0
   10.2825    3.1455   -0.0000 C   0  0  0  0  0  0  0  0  0  0  0  0
    7.6851   -1.3583   -0.0000 C   0  0  0  0  0  0  0  0  0  0  0  0
  -14.4646    2.4068   -0.0000 N   0  0  0  0  0  0  0  0  0  0  0  0
  -13.1659    4.6587   -0.0000 C   0  0  0  0  0  0  0  0  0  0  0  0
   11.5693    2.3949   -0.0000 C   0  0  0  0  0  0  0  0  0  0  0  0
   10.2706    4.6587   -0.0000 C   0  0  0  0  0  0  0  0  0  0  0  0
    8.9838   -2.0970   -0.0000 O   0  0  0  0  0  0  0  0  0  0  0  0
    6.3744   -2.0970   -0.0000 N   0  0  0  0  0  0  0  0  0  0  0  0
  -15.7752    3.1693   -0.0000 C   0  0  0  0  0  0  0  0  0  0  0  0
  -11.8791    5.4212   -0.0000 C   0  0  0  0  0  0  0  0  0  0  0  0
   11.5574    0.9055   -0.0000 O   0  0  0  0  0  0  0  0  0  0  0  0
   12.8561    3.1574   -0.0000 N   0  0  0  0  0  0  0  0  0  0  0  0
   11.5574    5.4212   -0.0000 C   0  0  0  0  0  0  0  0  0  0  0  0
  -15.7871    4.6825   -0.0000 O   0  0  0  0  0  0  0  0  0  0  0  0
  -17.0739    2.4306   -0.0000 C   0  0  0  0  0  0  0  0  0  0  0  0
  -11.8910    6.9344   -0.0000 C   0  0  0  0  0  0  0  0  0  0  0  0
   14.1429    2.4068   -0.0000 C   0  0  0  0  0  0  0  0  0  0  0  0
   11.5455    6.9344   -0.0000 O   0  0  0  0  0  0  0  0  0  0  0  0
   12.8442    4.6825   -0.0000 O   0  0  0  0  0  0  0  0  0  0  0  0
  -18.4084    3.1932   -0.0000 N   0  0  0  0  0  0  0  0  0  0  0  0
  -17.0859    0.9413   -0.0000 C   0  0  0  0  0  0  0  0  0  0  0  0
  -10.6042    7.7089   -0.0000 O   0  0  0  0  0  0  0  0  0  0  0  0
  -13.2016    7.6970   -0.0000 O   0  0  0  0  0  0  0  0  0  0  0  0
   15.4178    3.1693   -0.0000 C   0  0  0  0  0  0  0  0  0  0  0  0
   14.1310    0.9174   -0.0000 C   0  0  0  0  0  0  0  0  0  0  0  0
  -19.7071    2.4545   -0.0000 C   0  0  0  0  0  0  0  0  0  0  0  0
  -15.8110    0.2026   -0.0000 S   0  0  0  0  0  0  0  0  0  0  0  0
   15.4059    4.6825   -0.0000 O   0  0  0  0  0  0  0  0  0  0  0  0
   16.7284    2.4306   -0.0000 N   0  0  0  0  0  0  0  0  0  0  0  0
   15.4059    0.1787   -0.0000 O   0  0  0  0  0  0  0  0  0  0  0  0
   12.8203    0.1787   -0.0000 C   0  0  0  0  0  0  0  0  0  0  0  0
  -19.7190    0.9651   -0.0000 O   0  0  0  0  0  0  0  0  0  0  0  0
  -21.0297    3.2170   -0.0000 C   0  0  0  0  0  0  0  0  0  0  0  0
   18.0033    3.1932   -0.0000 C   0  0  0  0  0  0  0  0  0  0  0  0
  -22.3403    2.4783   -0.0000 N   0  0  0  0  0  0  0  0  0  0  0  0
  -21.0416    4.7302   -0.0000 C   0  0  0  0  0  0  0  0  0  0  0  0
   19.2901    2.4545   -0.0000 C   0  0  0  0  0  0  0  0  0  0  0  0
  -23.6628    3.2408   -0.0000 C   0  0  0  0  0  0  0  0  0  0  0  0
  -19.7548    5.4927   -0.0000 C   0  0  0  0  0  0  0  0  0  0  0  0
   19.2782    0.9651   -0.0000 O   0  0  0  0  0  0  0  0  0  0  0  0
   20.5888    3.2170   -0.0000 N   0  0  0  0  0  0  0  0  0  0  0  0
  -23.6747    4.7659   -0.0000 O   0  0  0  0  0  0  0  0  0  0  0  0
  -24.9854    2.5021   -0.0000 C   0  0  0  0  0  0  0  0  0  0  0  0
  -18.4680    4.7421   -0.0000 C   0  0  0  0  0  0  0  0  0  0  0  0
  -19.7667    7.0059   -0.0000 C   0  0  0  0  0  0  0  0  0  0  0  0
   21.8756    2.4783   -0.0000 C   0  0  0  0  0  0  0  0  0  0  0  0
  -26.2960    3.2647   -0.0000 N   0  0  0  0  0  0  0  0  0  0  0  0
  -24.9973    1.0128   -0.0000 C   0  0  0  0  0  0  0  0  0  0  0  0
  -17.1693    5.5046   -0.0000 C   0  0  0  0  0  0  0  0  0  0  0  0
  -18.4799    7.7685   -0.0000 C   0  0  0  0  0  0  0  0  0  0  0  0
   23.1743    3.2408   -0.0000 C   0  0  0  0  0  0  0  0  0  0  0  0
   21.8637    0.9889   -0.0000 C   0  0  0  0  0  0  0  0  0  0  0  0
  -27.6186    2.5259   -0.0000 C   0  0  0  0  0  0  0  0  0  0  0  0
  -23.6986    0.2740   -0.0000 C   0  0  0  0  0  0  0  0  0  0  0  0
  -17.1812    7.0178   -0.0000 C   0  0  0  0  0  0  0  0  0  0  0  0
   23.1624    4.7540   -0.0000 O   0  0  0  0  0  0  0  0  0  0  0  0
   24.4611    2.5021   -0.0000 N   0  0  0  0  0  0  0  0  0  0  0  0
   23.1624    0.2502   -0.0000 C   0  0  0  0  0  0  0  0  0  0  0  0
  -27.6305    1.0366   -0.0000 O   0  0  0  0  0  0  0  0  0  0  0  0
  -28.9292    3.2885   -0.0000 C   0  0  0  0  0  0  0  0  0  0  0  0
  -23.7105   -1.2153   -0.0000 C   0  0  0  0  0  0  0  0  0  0  0  0
   25.7479    3.2647   -0.0000 C   0  0  0  0  0  0  0  0  0  0  0  0
   23.1505   -1.2391   -0.0000 O   0  0  0  0  0  0  0  0  0  0  0  0
   24.4373    1.0128   -0.0000 O   0  0  0  0  0  0  0  0  0  0  0  0
  -30.2398    2.5498   -0.0000 N   0  0  0  0  0  0  0  0  0  0  0  0
  -28.9411    4.8136   -0.0000 C   0  0  0  0  0  0  0  0  0  0  0  0
  -22.4356   -1.9540   -0.0000 N   0  0  0  0  0  0  0  0  0  0  0  0
   27.0466    2.5259   -0.0000 C   0  0  0  0  0  0  0  0  0  0  0  0
   25.7360    4.7778   -0.0000 C   0  0  0  0  0  0  0  0  0  0  0  0
  -27.6424    5.5761   -0.0000 C   0  0  0  0  0  0  0  0  0  0  0  0
  -22.4475   -3.4553   -0.0000 C   0  0  0  0  0  0  0  0  0  0  0  0
   27.0347    1.0366   -0.0000 O   0  0  0  0  0  0  0  0  0  0  0  0
   28.3454    3.2885   -0.0000 N   0  0  0  0  0  0  0  0  0  0  0  0
   27.0347    5.5404   -0.0000 C   0  0  0  0  0  0  0  0  0  0  0  0
   24.4254    5.5404   -0.0000 C   0  0  0  0  0  0  0  0  0  0  0  0
  -27.6543    7.0893   -0.0000 O   0  0  0  0  0  0  0  0  0  0  0  0
  -26.3437    4.8374   -0.0000 N   0  0  0  0  0  0  0  0  0  0  0  0
  -21.1488   -4.1940   -0.0000 N   0  0  0  0  0  0  0  0  0  0  0  0
  -23.7582   -4.1940   -0.0000 N   0  0  0  0  0  0  0  0  0  0  0  0
   29.6322    2.5379   -0.0000 C   0  0  0  0  0  0  0  0  0  0  0  0
   30.9190    3.3004   -0.0000 C   0  0  0  0  0  0  0  0  0  0  0  0
   29.6202    1.0485   -0.0000 C   0  0  0  0  0  0  0  0  0  0  0  0
   30.9070    4.8136   -0.0000 O   0  0  0  0  0  0  0  0  0  0  0  0
   32.2058    2.5498   -0.0000 N   0  0  0  0  0  0  0  0  0  0  0  0
   30.9070    0.3098   -0.0000 C   0  0  0  0  0  0  0  0  0  0  0  0
   33.4926    3.3123   -0.0000 C   0  0  0  0  0  0  0  0  0  0  0  0
   30.8951   -1.1796   -0.0000 C   0  0  0  0  0  0  0  0  0  0  0  0
   34.7913    2.5736   -0.0000 C   0  0  0  0  0  0  0  0  0  0  0  0
   33.4806    4.8255   -0.0000 C   0  0  0  0  0  0  0  0  0  0  0  0
   32.1819   -1.9183   -0.0000 C   0  0  0  0  0  0  0  0  0  0  0  0
   34.7794    1.0842   -0.0000 O   0  0  0  0  0  0  0  0  0  0  0  0
   36.0781    3.3361   -0.0000 N   0  0  0  0  0  0  0  0  0  0  0  0
   32.1700   -3.4196   -0.0000 N   0  0  0  0  0  0  0  0  0  0  0  0
   37.3768    2.5974   -0.0000 C   0  0  0  0  0  0  0  0  0  0  0  0
   38.6636    3.3600   -0.0000 C   0  0  0  0  0  0  0  0  0  0  0  0
   37.3649    1.1081   -0.0000 C   0  0  0  0  0  0  0  0  0  0  0  0
   38.6517    4.8732   -0.0000 O   0  0  0  0  0  0  0  0  0  0  0  0
   39.9623    2.6213   -0.0000 N   0  0  0  0  0  0  0  0  0  0  0  0
   38.6517    0.3694   -0.0000 S   0  0  0  0  0  0  0  0  0  0  0  0
   41.2491    3.3838   -0.0000 C   0  0  0  0  0  0  0  0  0  0  0  0
   42.5478    2.6451   -0.0000 C   0  0  0  0  0  0  0  0  0  0  0  0
   41.2372    4.8970   -0.0000 C   0  0  0  0  0  0  0  0  0  0  0  0
   42.5359    1.1557   -0.0000 O   0  0  0  0  0  0  0  0  0  0  0  0
   43.8346    3.4076   -0.0000 N   0  0  0  0  0  0  0  0  0  0  0  0
   42.5359    5.6595   -0.0000 C   0  0  0  0  0  0  0  0  0  0  0  0
   45.1333    2.6689   -0.0000 C   0  0  0  0  0  0  0  0  0  0  0  0
   42.5240    7.1727   -0.0000 C   0  0  0  0  0  0  0  0  0  0  0  0
   46.4201    3.4315   -0.0000 C   0  0  0  0  0  0  0  0  0  0  0  0
   45.1214    1.1796   -0.0000 C   0  0  0  0  0  0  0  0  0  0  0  0
   43.8108    7.9353   -0.0000 O   0  0  0  0  0  0  0  0  0  0  0  0
   41.2134    7.9353   -0.0000 O   0  0  0  0  0  0  0  0  0  0  0  0
   46.4082    4.9447   -0.0000 O   0  0  0  0  0  0  0  0  0  0  0  0
   47.7189    2.6927   -0.0000 N   0  0  0  0  0  0  0  0  0  0  0  0
   46.4082    0.4408   -0.0000 C   0  0  0  0  0  0  0  0  0  0  0  0
   49.0057    3.4553   -0.0000 C   0  0  0  0  0  0  0  0  0  0  0  0
   46.5512   -1.0485   -0.0000 C   0  0  0  0  0  0  0  0  0  0  0  0
   47.7784    1.0604   -0.0000 C   0  0  0  0  0  0  0  0  0  0  0  0
   50.2925    2.7166   -0.0000 C   0  0  0  0  0  0  0  0  0  0  0  0
   48.9937    4.9685   -0.0000 C   0  0  0  0  0  0  0  0  0  0  0  0
   48.0167   -1.3464   -0.0000 C   0  0  0  0  0  0  0  0  0  0  0  0
   45.5384   -2.1566   -0.0000 C   0  0  0  0  0  0  0  0  0  0  0  0
   48.7674   -0.0477   -0.0000 N   0  0  0  0  0  0  0  0  0  0  0  0
   50.2805    1.2272   -0.0000 O   0  0  0  0  0  0  0  0  0  0  0  0
   51.5793    3.4791   -0.0000 N   0  0  0  0  0  0  0  0  0  0  0  0
   48.4695   -2.7642   -0.0000 C   0  0  0  0  0  0  0  0  0  0  0  0
   45.9912   -3.5744   -0.0000 C   0  0  0  0  0  0  0  0  0  0  0  0
   52.8661    2.7404   -0.0000 C   0  0  0  0  0  0  0  0  0  0  0  0
   47.4448   -3.8723   -0.0000 C   0  0  0  0  0  0  0  0  0  0  0  0
   54.1529    3.5030   -0.0000 C   0  0  0  0  0  0  0  0  0  0  0  0
   52.8541    1.2391   -0.0000 C   0  0  0  0  0  0  0  0  0  0  0  0
   54.1409    5.0161   -0.0000 O   0  0  0  0  0  0  0  0  0  0  0  0
   55.4397    2.7642   -0.0000 N   0  0  0  0  0  0  0  0  0  0  0  0
   54.1409    0.5004   -0.0000 S   0  0  0  0  0  0  0  0  0  0  0  0
   56.7265    3.5268   -0.0000 C   0  0  0  0  0  0  0  0  0  0  0  0
   58.0133    2.7881   -0.0000 C   0  0  0  0  0  0  0  0  0  0  0  0
   56.7145    5.0400   -0.0000 C   0  0  0  0  0  0  0  0  0  0  0  0
   58.0013    1.2868   -0.0000 O   0  0  0  0  0  0  0  0  0  0  0  0
   59.3001    3.5506   -0.0000 O   0  0  0  0  0  0  0  0  0  0  0  0
   58.0013    5.8025   -0.0000 C   0  0  0  0  0  0  0  0  0  0  0  0
   57.9894    7.3157   -0.0000 C   0  0  0  0  0  0  0  0  0  0  0  0
   59.2881    8.0782   -0.0000 O   0  0  0  0  0  0  0  0  0  0  0  0
   56.6788    8.0782   -0.0000 N   0  0  0  0  0  0  0  0  0  0  0  0
  1  2  1  0  0  0  0
  2  3  1  0  0  0  0
  3  4  1  6  0  0  0
  3  5  1  0  0  0  0
  4  6  1  0  0  0  0
  5  7  2  0  0  0  0
  5  8  1  0  0  0  0
  6  9  2  0  0  0  0
  6 10  1  0  0  0  0
 11  8  1  1  0  0  0
 10 12  1  1  0  0  0
 10 13  1  0  0  0  0
 11 14  1  0  0  0  0
 11 15  1  0  0  0  0
 12 16  1  0  0  0  0
 13 17  1  0  0  0  0
 14 18  2  0  0  0  0
 14 19  1  0  0  0  0
 15 20  1  0  0  0  0
 15 21  1  6  0  0  0
 16 22  2  0  0  0  0
 16 23  1  0  0  0  0
 17 24  2  0  0  0  0
 17 25  1  0  0  0  0
 26 19  1  6  0  0  0
 20 27  1  0  0  0  0
 23 28  1  6  0  0  0
 23 29  1  0  0  0  0
 24 30  1  0  0  0  0
 25 31  2  0  0  0  0
 26 32  1  0  0  0  0
 26 33  1  0  0  0  0
 28 34  1  0  0  0  0
 29 35  1  0  0  0  0
 30 36  2  0  0  0  0
 32 37  2  0  0  0  0
 32 38  1  0  0  0  0
 33 39  1  0  0  0  0
 34 40  2  0  0  0  0
 34 41  1  0  0  0  0
 35 42  1  0  0  0  0
 35 43  1  0  0  0  0
 44 38  1  1  0  0  0
 39 45  1  0  0  0  0
 41 46  1  1  0  0  0
 41 47  1  0  0  0  0
 44 48  1  0  0  0  0
 44 49  1  0  0  0  0
 45 50  2  0  0  0  0
 45 51  1  0  0  0  0
 46 52  1  0  0  0  0
 47 53  1  0  0  0  0
 48 54  2  0  0  0  0
 48 55  1  0  0  0  0
 49 56  1  0  0  0  0
 52 57  2  0  0  0  0
 52 58  1  0  0  0  0
 53 59  1  0  0  0  0
 60 55  1  6  0  0  0
 56 61  2  0  0  0  0
 56 62  1  0  0  0  0
 58 63  1  6  0  0  0
 58 64  1  0  0  0  0
 59 65  2  0  0  0  0
 59 66  1  0  0  0  0
 60 67  1  0  0  0  0
 60 68  1  0  0  0  0
 63 69  1  0  0  0  0
 64 70  1  0  0  0  0
 67 71  2  0  0  0  0
 67 72  1  0  0  0  0
 68 73  1  6  0  0  0
 68 74  1  0  0  0  0
 69 75  2  0  0  0  0
 69 76  1  0  0  0  0
 72 77  1  0  0  0  0
 76 78  1  1  0  0  0
 76 79  1  0  0  0  0
 77 80  1  0  0  0  0
 78 81  1  0  0  0  0
 79 82  1  0  0  0  0
 80 83  2  0  0  0  0
 80 84  1  0  0  0  0
 81 85  2  0  0  0  0
 81 86  1  0  0  0  0
 82 87  2  0  0  0  0
 82 88  1  0  0  0  0
 89 84  1  6  0  0  0
 86 90  1  6  0  0  0
 86 91  1  0  0  0  0
 87 92  1  0  0  0  0
 88 93  2  0  0  0  0
 89 94  1  0  0  0  0
 89 95  1  0  0  0  0
 90 96  1  0  0  0  0
 91 97  1  0  0  0  0
 92 98  2  0  0  0  0
 94 99  2  0  0  0  0
 94100  1  0  0  0  0
 95101  1  0  0  0  0
 96102  2  0  0  0  0
 96103  1  0  0  0  0
 97104  1  0  0  0  0
105100  1  1  0  0  0
101106  2  0  0  0  0
101107  1  0  0  0  0
103108  1  1  0  0  0
103109  1  0  0  0  0
104110  1  0  0  0  0
105111  1  0  0  0  0
105112  1  0  0  0  0
109113  1  0  0  0  0
110114  1  0  0  0  0
111115  2  0  0  0  0
111116  1  0  0  0  0
112117  1  0  0  0  0
112118  1  0  0  0  0
113119  2  0  0  0  0
113120  1  0  0  0  0
114121  2  0  0  0  0
114122  1  0  0  0  0
123116  1  6  0  0  0
123124  1  0  0  0  0
123125  1  0  0  0  0
124126  2  0  0  0  0
124127  1  0  0  0  0
125128  1  0  0  0  0
129127  1  1  0  0  0
128130  1  0  0  0  0
129131  1  0  0  0  0
129132  1  0  0  0  0
130133  1  0  0  0  0
131134  2  0  0  0  0
131135  1  0  0  0  0
133136  1  0  0  0  0
137135  1  6  0  0  0
137138  1  0  0  0  0
137139  1  0  0  0  0
138140  2  0  0  0  0
138141  1  0  0  0  0
139142  1  0  0  0  0
143141  1  1  0  0  0
143144  1  0  0  0  0
143145  1  0  0  0  0
144146  2  0  0  0  0
144147  1  0  0  0  0
145148  1  0  0  0  0
149147  1  6  0  0  0
148150  1  0  0  0  0
149151  1  0  0  0  0
149152  1  0  0  0  0
150153  2  0  0  0  0
150154  1  0  0  0  0
151155  2  0  0  0  0
151156  1  0  0  0  0
152157  1  0  0  0  0
158156  1  1  0  0  0
157159  1  0  0  0  0
157160  2  0  0  0  0
158161  1  0  0  0  0
158162  1  0  0  0  0
159163  2  0  0  0  0
159164  1  0  0  0  0
160165  1  0  0  0  0
161166  2  0  0  0  0
161167  1  0  0  0  0
163168  1  0  0  0  0
164169  2  0  0  0  0
170167  1  6  0  0  0
168171  2  0  0  0  0
170172  1  0  0  0  0
170173  1  0  0  0  0
172174  2  0  0  0  0
172175  1  0  0  0  0
173176  1  0  0  0  0
177175  1  1  0  0  0
177178  1  0  0  0  0
177179  1  0  0  0  0
178180  2  0  0  0  0
178181  1  0  0  0  0
179182  1  0  0  0  0
182183  1  0  0  0  0
183184  2  0  0  0  0
183185  1  0  0  0  0
 31 36  1  0  0  0  0
 93 98  1  0  0  0  0
163165  1  0  0  0  0
169171  1  0  0  0  0
M  END
>  <MolRegNo>
1625072

>  <m>
=

>  <Value>
2100

>  <Unit>
nM

>  <Type>
Ki

>  <pValue>
5.68

>  <Ligand Efficiency>
0

>  <Binding Efficiency>
2.12

>  <Surface Efficiency>
0

>  <Assay Index>
831551

>  <Assay Category>


>  <Assay Organism>
Homo sapiens

>  <Target ID>
56

>  <Target Name>
Androgen Receptor

>  <Target Organism>
Homo sapiens

>  <Target Description>
Target is a single protein chain

>  <Sequence Accession>
P10275

>  <Reference>
Medchemcomm 4 (1), 187-192 (2013)

>  <Pubmed ID>


>  <DOI>
10.1039/C2MD20182H

$$$$
1625070
Actelion Java MolfileCreator 1.0

176177  0  0  0  0  0  0  0  0999 V2000
    0.0000   -0.0000   -0.0000 S   0  0  0  0  0  0  0  0  0  0  0  0
   -1.3151    0.7701   -0.0000 C   0  0  0  0  0  0  0  0  0  0  0  0
   -1.3270    2.2867   -0.0000 C   0  0  0  0  0  0  0  0  0  0  0  0
   -2.6421    3.0449   -0.0000 N   0  0  0  0  0  0  0  0  0  0  0  0
   -0.0355    3.0449   -0.0000 C   0  0  0  0  0  0  0  0  0  0  0  0
   -3.9454    2.3103   -0.0000 C   0  0  0  0  0  0  0  0  0  0  0  0
   -0.0474    4.5615   -0.0000 O   0  0  0  0  0  0  0  0  0  0  0  0
    1.2559    2.3103   -0.0000 N   0  0  0  0  0  0  0  0  0  0  0  0
   -3.9572    0.8175   -0.0000 O   0  0  0  0  0  0  0  0  0  0  0  0
   -5.2605    3.0686   -0.0000 C   0  0  0  0  0  0  0  0  0  0  0  0
    2.5473    3.0686   -0.0000 C   0  0  0  0  0  0  0  0  0  0  0  0
   -6.5756    2.3340   -0.0000 N   0  0  0  0  0  0  0  0  0  0  0  0
   -5.2723    4.5851   -0.0000 C   0  0  0  0  0  0  0  0  0  0  0  0
    3.8387    2.3340   -0.0000 C   0  0  0  0  0  0  0  0  0  0  0  0
    2.5355    4.5851   -0.0000 C   0  0  0  0  0  0  0  0  0  0  0  0
   -7.8907    3.0923   -0.0000 C   0  0  0  0  0  0  0  0  0  0  0  0
   -3.9809    5.3553   -0.0000 C   0  0  0  0  0  0  0  0  0  0  0  0
    3.8269    0.8412   -0.0000 O   0  0  0  0  0  0  0  0  0  0  0  0
    5.1302    3.0923   -0.0000 N   0  0  0  0  0  0  0  0  0  0  0  0
    1.2203    5.3553   -0.0000 C   0  0  0  0  0  0  0  0  0  0  0  0
    3.8269    5.3553   -0.0000 C   0  0  0  0  0  0  0  0  0  0  0  0
   -7.9026    4.6088   -0.0000 O   0  0  0  0  0  0  0  0  0  0  0  0
   -9.2058    2.3577   -0.0000 C   0  0  0  0  0  0  0  0  0  0  0  0
   -2.7013    4.6088   -0.0000 C   0  0  0  0  0  0  0  0  0  0  0  0
   -3.9928    6.8718   -0.0000 C   0  0  0  0  0  0  0  0  0  0  0  0
    6.4097    2.3577   -0.0000 C   0  0  0  0  0  0  0  0  0  0  0  0
    1.2085    6.8718   -0.0000 C   0  0  0  0  0  0  0  0  0  0  0  0
  -10.5210    3.1160   -0.0000 N   0  0  0  0  0  0  0  0  0  0  0  0
   -9.2177    0.8649   -0.0000 C   0  0  0  0  0  0  0  0  0  0  0  0
   -1.4099    5.3790   -0.0000 C   0  0  0  0  0  0  0  0  0  0  0  0
   -2.7132    7.6301   -0.0000 C   0  0  0  0  0  0  0  0  0  0  0  0
    7.7012    3.1160   -0.0000 C   0  0  0  0  0  0  0  0  0  0  0  0
    6.3979    0.8649   -0.0000 C   0  0  0  0  0  0  0  0  0  0  0  0
  -11.8361    2.3814   -0.0000 C   0  0  0  0  0  0  0  0  0  0  0  0
   -7.9263    0.1185   -0.0000 C   0  0  0  0  0  0  0  0  0  0  0  0
   -1.4218    6.8955   -0.0000 C   0  0  0  0  0  0  0  0  0  0  0  0
    7.6893    4.6325   -0.0000 O   0  0  0  0  0  0  0  0  0  0  0  0
    8.9926    2.3814   -0.0000 N   0  0  0  0  0  0  0  0  0  0  0  0
    7.6893    0.1185   -0.0000 C   0  0  0  0  0  0  0  0  0  0  0  0
  -11.8479    0.8886   -0.0000 O   0  0  0  0  0  0  0  0  0  0  0  0
  -13.1512    3.1397   -0.0000 C   0  0  0  0  0  0  0  0  0  0  0  0
   -7.9381   -1.3744   -0.0000 C   0  0  0  0  0  0  0  0  0  0  0  0
   -6.6348    0.8886   -0.0000 C   0  0  0  0  0  0  0  0  0  0  0  0
   10.2840    3.1397   -0.0000 C   0  0  0  0  0  0  0  0  0  0  0  0
    7.6775   -1.3744   -0.0000 C   0  0  0  0  0  0  0  0  0  0  0  0
  -14.4545    2.4051   -0.0000 N   0  0  0  0  0  0  0  0  0  0  0  0
  -13.1631    4.6562   -0.0000 C   0  0  0  0  0  0  0  0  0  0  0  0
   11.5754    2.4051   -0.0000 C   0  0  0  0  0  0  0  0  0  0  0  0
    8.9689   -2.1089   -0.0000 O   0  0  0  0  0  0  0  0  0  0  0  0
    6.3623   -2.1089   -0.0000 N   0  0  0  0  0  0  0  0  0  0  0  0
  -15.7696    3.1634   -0.0000 C   0  0  0  0  0  0  0  0  0  0  0  0
  -11.8716    5.4264   -0.0000 C   0  0  0  0  0  0  0  0  0  0  0  0
   11.5636    0.9123   -0.0000 O   0  0  0  0  0  0  0  0  0  0  0  0
   12.8669    3.1634   -0.0000 N   0  0  0  0  0  0  0  0  0  0  0  0
  -15.7814    4.6799   -0.0000 O   0  0  0  0  0  0  0  0  0  0  0  0
  -17.0847    2.4288   -0.0000 C   0  0  0  0  0  0  0  0  0  0  0  0
  -11.8835    6.9429   -0.0000 C   0  0  0  0  0  0  0  0  0  0  0  0
   14.1583    2.4288   -0.0000 C   0  0  0  0  0  0  0  0  0  0  0  0
  -18.3998    3.1871   -0.0000 N   0  0  0  0  0  0  0  0  0  0  0  0
  -17.0966    0.9360   -0.0000 C   0  0  0  0  0  0  0  0  0  0  0  0
  -10.5920    7.7012   -0.0000 O   0  0  0  0  0  0  0  0  0  0  0  0
  -13.1986    7.7012   -0.0000 O   0  0  0  0  0  0  0  0  0  0  0  0
   15.4497    3.1871   -0.0000 C   0  0  0  0  0  0  0  0  0  0  0  0
   14.1464    0.9360   -0.0000 C   0  0  0  0  0  0  0  0  0  0  0  0
  -19.7150    2.4525   -0.0000 C   0  0  0  0  0  0  0  0  0  0  0  0
  -15.8051    0.1896   -0.0000 S   0  0  0  0  0  0  0  0  0  0  0  0
   15.4379    4.7036   -0.0000 O   0  0  0  0  0  0  0  0  0  0  0  0
   16.7293    2.4525   -0.0000 N   0  0  0  0  0  0  0  0  0  0  0  0
   15.4379    0.1896   -0.0000 O   0  0  0  0  0  0  0  0  0  0  0  0
   12.8313    0.1896   -0.0000 C   0  0  0  0  0  0  0  0  0  0  0  0
  -19.7268    0.9597   -0.0000 O   0  0  0  0  0  0  0  0  0  0  0  0
  -21.0301    3.2108   -0.0000 C   0  0  0  0  0  0  0  0  0  0  0  0
   18.0207    3.2108   -0.0000 C   0  0  0  0  0  0  0  0  0  0  0  0
  -22.3452    2.4762   -0.0000 N   0  0  0  0  0  0  0  0  0  0  0  0
  -21.0419    4.7273   -0.0000 C   0  0  0  0  0  0  0  0  0  0  0  0
   19.3121    2.4762   -0.0000 C   0  0  0  0  0  0  0  0  0  0  0  0
  -23.6603    3.2345   -0.0000 C   0  0  0  0  0  0  0  0  0  0  0  0
  -19.7505    5.4974   -0.0000 C   0  0  0  0  0  0  0  0  0  0  0  0
   19.3003    0.9834   -0.0000 O   0  0  0  0  0  0  0  0  0  0  0  0
   20.6036    3.2345   -0.0000 N   0  0  0  0  0  0  0  0  0  0  0  0
  -23.6722    4.7510   -0.0000 O   0  0  0  0  0  0  0  0  0  0  0  0
  -24.9636    2.4999   -0.0000 C   0  0  0  0  0  0  0  0  0  0  0  0
  -18.4709    4.7510   -0.0000 C   0  0  0  0  0  0  0  0  0  0  0  0
  -19.7623    7.0140   -0.0000 C   0  0  0  0  0  0  0  0  0  0  0  0
   21.8950    2.4999   -0.0000 C   0  0  0  0  0  0  0  0  0  0  0  0
  -26.2787    3.2582   -0.0000 N   0  0  0  0  0  0  0  0  0  0  0  0
  -24.9754    1.0071   -0.0000 C   0  0  0  0  0  0  0  0  0  0  0  0
  -17.1795    5.5211   -0.0000 C   0  0  0  0  0  0  0  0  0  0  0  0
  -18.4828    7.7722   -0.0000 C   0  0  0  0  0  0  0  0  0  0  0  0
   23.1864    3.2582   -0.0000 C   0  0  0  0  0  0  0  0  0  0  0  0
   21.8831    1.0071   -0.0000 C   0  0  0  0  0  0  0  0  0  0  0  0
  -27.5938    2.5236   -0.0000 C   0  0  0  0  0  0  0  0  0  0  0  0
  -23.6959    0.2607   -0.0000 C   0  0  0  0  0  0  0  0  0  0  0  0
  -17.1913    7.0377   -0.0000 C   0  0  0  0  0  0  0  0  0  0  0  0
   23.1746    4.7747   -0.0000 O   0  0  0  0  0  0  0  0  0  0  0  0
   24.4778    2.5236   -0.0000 N   0  0  0  0  0  0  0  0  0  0  0  0
   23.1746    0.2607   -0.0000 C   0  0  0  0  0  0  0  0  0  0  0  0
  -27.6057    1.0308   -0.0000 O   0  0  0  0  0  0  0  0  0  0  0  0
  -28.9090    3.2819   -0.0000 C   0  0  0  0  0  0  0  0  0  0  0  0
  -23.7077   -1.2322   -0.0000 C   0  0  0  0  0  0  0  0  0  0  0  0
   25.7574    3.2819   -0.0000 C   0  0  0  0  0  0  0  0  0  0  0  0
   23.1627   -1.2322   -0.0000 O   0  0  0  0  0  0  0  0  0  0  0  0
   24.4660    1.0308   -0.0000 O   0  0  0  0  0  0  0  0  0  0  0  0
  -30.2241    2.5473   -0.0000 N   0  0  0  0  0  0  0  0  0  0  0  0
  -28.9208    4.7984   -0.0000 C   0  0  0  0  0  0  0  0  0  0  0  0
  -22.4163   -1.9668   -0.0000 N   0  0  0  0  0  0  0  0  0  0  0  0
   27.0488    2.5473   -0.0000 C   0  0  0  0  0  0  0  0  0  0  0  0
   25.7456    4.7984   -0.0000 C   0  0  0  0  0  0  0  0  0  0  0  0
  -27.6294    5.5685   -0.0000 C   0  0  0  0  0  0  0  0  0  0  0  0
  -22.4281   -3.4596   -0.0000 C   0  0  0  0  0  0  0  0  0  0  0  0
   27.0370    1.0545   -0.0000 O   0  0  0  0  0  0  0  0  0  0  0  0
   28.3402    3.3056   -0.0000 N   0  0  0  0  0  0  0  0  0  0  0  0
   27.0370    5.5685   -0.0000 C   0  0  0  0  0  0  0  0  0  0  0  0
   24.4423    5.5685   -0.0000 C   0  0  0  0  0  0  0  0  0  0  0  0
  -27.6412    7.0851   -0.0000 O   0  0  0  0  0  0  0  0  0  0  0  0
  -26.3379    4.8221   -0.0000 N   0  0  0  0  0  0  0  0  0  0  0  0
  -21.1367   -4.2060   -0.0000 N   0  0  0  0  0  0  0  0  0  0  0  0
  -23.7433   -4.2060   -0.0000 N   0  0  0  0  0  0  0  0  0  0  0  0
   29.6317    2.5710   -0.0000 C   0  0  0  0  0  0  0  0  0  0  0  0
   30.9231    3.3293   -0.0000 C   0  0  0  0  0  0  0  0  0  0  0  0
   29.6198    1.0782   -0.0000 C   0  0  0  0  0  0  0  0  0  0  0  0
   30.9113    4.8458   -0.0000 O   0  0  0  0  0  0  0  0  0  0  0  0
   32.2145    2.5947   -0.0000 N   0  0  0  0  0  0  0  0  0  0  0  0
   30.9113    0.3317   -0.0000 C   0  0  0  0  0  0  0  0  0  0  0  0
   33.5059    3.3530   -0.0000 C   0  0  0  0  0  0  0  0  0  0  0  0
   30.8994   -1.1611   -0.0000 C   0  0  0  0  0  0  0  0  0  0  0  0
   34.7974    2.6184   -0.0000 C   0  0  0  0  0  0  0  0  0  0  0  0
   33.4941    4.8695   -0.0000 C   0  0  0  0  0  0  0  0  0  0  0  0
   32.1908   -1.8957   -0.0000 C   0  0  0  0  0  0  0  0  0  0  0  0
   34.7855    1.1256   -0.0000 O   0  0  0  0  0  0  0  0  0  0  0  0
   36.0769    3.3767   -0.0000 N   0  0  0  0  0  0  0  0  0  0  0  0
   32.1790   -3.3885   -0.0000 N   0  0  0  0  0  0  0  0  0  0  0  0
   37.3684    2.6421   -0.0000 C   0  0  0  0  0  0  0  0  0  0  0  0
   38.6598    3.4004   -0.0000 C   0  0  0  0  0  0  0  0  0  0  0  0
   37.3565    1.1492   -0.0000 C   0  0  0  0  0  0  0  0  0  0  0  0
   38.6479    4.9169   -0.0000 O   0  0  0  0  0  0  0  0  0  0  0  0
   39.9512    2.6658   -0.0000 N   0  0  0  0  0  0  0  0  0  0  0  0
   38.6479    0.4028   -0.0000 S   0  0  0  0  0  0  0  0  0  0  0  0
   41.2426    3.4241   -0.0000 C   0  0  0  0  0  0  0  0  0  0  0  0
   42.5341    2.6895   -0.0000 C   0  0  0  0  0  0  0  0  0  0  0  0
   41.2308    4.9406   -0.0000 C   0  0  0  0  0  0  0  0  0  0  0  0
   42.5222    1.1966   -0.0000 O   0  0  0  0  0  0  0  0  0  0  0  0
   43.8255    3.4477   -0.0000 N   0  0  0  0  0  0  0  0  0  0  0  0
   42.5222    5.7107   -0.0000 C   0  0  0  0  0  0  0  0  0  0  0  0
   45.1169    2.7132   -0.0000 C   0  0  0  0  0  0  0  0  0  0  0  0
   42.5104    7.2272   -0.0000 C   0  0  0  0  0  0  0  0  0  0  0  0
   46.3965    3.4714   -0.0000 C   0  0  0  0  0  0  0  0  0  0  0  0
   45.1051    1.2203   -0.0000 C   0  0  0  0  0  0  0  0  0  0  0  0
   43.8018    7.9855   -0.0000 O   0  0  0  0  0  0  0  0  0  0  0  0
   41.1953    7.9855   -0.0000 O   0  0  0  0  0  0  0  0  0  0  0  0
   46.3846    4.9880   -0.0000 O   0  0  0  0  0  0  0  0  0  0  0  0
   47.6879    2.7369   -0.0000 N   0  0  0  0  0  0  0  0  0  0  0  0
   46.3846    0.4739   -0.0000 C   0  0  0  0  0  0  0  0  0  0  0  0
   48.9793    3.4951   -0.0000 C   0  0  0  0  0  0  0  0  0  0  0  0
   46.3728   -1.0189   -0.0000 C   0  0  0  0  0  0  0  0  0  0  0  0
   50.2708    2.7606   -0.0000 C   0  0  0  0  0  0  0  0  0  0  0  0
   48.9675    5.0117   -0.0000 C   0  0  0  0  0  0  0  0  0  0  0  0
   47.6642   -1.7535   -0.0000 O   0  0  0  0  0  0  0  0  0  0  0  0
   45.0695   -1.7535   -0.0000 O   0  0  0  0  0  0  0  0  0  0  0  0
   50.2589    1.2677   -0.0000 O   0  0  0  0  0  0  0  0  0  0  0  0
   51.5622    3.5188   -0.0000 N   0  0  0  0  0  0  0  0  0  0  0  0
   52.8536    2.7843   -0.0000 C   0  0  0  0  0  0  0  0  0  0  0  0
   54.1450    3.5425   -0.0000 C   0  0  0  0  0  0  0  0  0  0  0  0
   52.8418    1.2914   -0.0000 C   0  0  0  0  0  0  0  0  0  0  0  0
   54.1332    5.0591   -0.0000 O   0  0  0  0  0  0  0  0  0  0  0  0
   55.4246    2.8080   -0.0000 N   0  0  0  0  0  0  0  0  0  0  0  0
   54.1332    0.5450   -0.0000 S   0  0  0  0  0  0  0  0  0  0  0  0
   56.7160    3.5662   -0.0000 C   0  0  0  0  0  0  0  0  0  0  0  0
   58.0075    2.8317   -0.0000 C   0  0  0  0  0  0  0  0  0  0  0  0
   56.7042    5.0828   -0.0000 C   0  0  0  0  0  0  0  0  0  0  0  0
   57.9956    1.3388   -0.0000 O   0  0  0  0  0  0  0  0  0  0  0  0
   59.2989    3.5899   -0.0000 O   0  0  0  0  0  0  0  0  0  0  0  0
   57.9956    5.8529   -0.0000 C   0  0  0  0  0  0  0  0  0  0  0  0
   57.9838    7.3694   -0.0000 C   0  0  0  0  0  0  0  0  0  0  0  0
   59.2752    8.1277   -0.0000 O   0  0  0  0  0  0  0  0  0  0  0  0
   56.6687    8.1277   -0.0000 N   0  0  0  0  0  0  0  0  0  0  0  0
  1  2  1  0  0  0  0
  2  3  1  0  0  0  0
  3  4  1  6  0  0  0
  3  5  1  0  0  0  0
  4  6  1  0  0  0  0
  5  7  2  0  0  0  0
  5  8  1  0  0  0  0
  6  9  2  0  0  0  0
  6 10  1  0  0  0  0
 11  8  1  1  0  0  0
 10 12  1  1  0  0  0
 10 13  1  0  0  0  0
 11 14  1  0  0  0  0
 11 15  1  0  0  0  0
 12 16  1  0  0  0  0
 13 17  1  0  0  0  0
 14 18  2  0  0  0  0
 14 19  1  0  0  0  0
 15 20  1  0  0  0  0
 15 21  1  6  0  0  0
 16 22  2  0  0  0  0
 16 23  1  0  0  0  0
 17 24  2  0  0  0  0
 17 25  1  0  0  0  0
 26 19  1  6  0  0  0
 20 27  1  0  0  0  0
 23 28  1  6  0  0  0
 23 29  1  0  0  0  0
 24 30  1  0  0  0  0
 25 31  2  0  0  0  0
 26 32  1  0  0  0  0
 26 33  1  0  0  0  0
 28 34  1  0  0  0  0
 29 35  1  0  0  0  0
 30 36  2  0  0  0  0
 32 37  2  0  0  0  0
 32 38  1  0  0  0  0
 33 39  1  0  0  0  0
 34 40  2  0  0  0  0
 34 41  1  0  0  0  0
 35 42  1  0  0  0  0
 35 43  1  0  0  0  0
 38 44  1  0  0  0  0
 39 45  1  0  0  0  0
 41 46  1  1  0  0  0
 41 47  1  0  0  0  0
 44 48  1  0  0  0  0
 45 49  2  0  0  0  0
 45 50  1  0  0  0  0
 46 51  1  0  0  0  0
 47 52  1  0  0  0  0
 48 53  2  0  0  0  0
 48 54  1  0  0  0  0
 51 55  2  0  0  0  0
 51 56  1  0  0  0  0
 52 57  1  0  0  0  0
 58 54  1  6  0  0  0
 56 59  1  6  0  0  0
 56 60  1  0  0  0  0
 57 61  2  0  0  0  0
 57 62  1  0  0  0  0
 58 63  1  0  0  0  0
 58 64  1  0  0  0  0
 59 65  1  0  0  0  0
 60 66  1  0  0  0  0
 63 67  2  0  0  0  0
 63 68  1  0  0  0  0
 64 69  1  6  0  0  0
 64 70  1  0  0  0  0
 65 71  2  0  0  0  0
 65 72  1  0  0  0  0
 68 73  1  0  0  0  0
 72 74  1  1  0  0  0
 72 75  1  0  0  0  0
 73 76  1  0  0  0  0
 74 77  1  0  0  0  0
 75 78  1  0  0  0  0
 76 79  2  0  0  0  0
 76 80  1  0  0  0  0
 77 81  2  0  0  0  0
 77 82  1  0  0  0  0
 78 83  2  0  0  0  0
 78 84  1  0  0  0  0
 85 80  1  6  0  0  0
 82 86  1  6  0  0  0
 82 87  1  0  0  0  0
 83 88  1  0  0  0  0
 84 89  2  0  0  0  0
 85 90  1  0  0  0  0
 85 91  1  0  0  0  0
 86 92  1  0  0  0  0
 87 93  1  0  0  0  0
 88 94  2  0  0  0  0
 90 95  2  0  0  0  0
 90 96  1  0  0  0  0
 91 97  1  0  0  0  0
 92 98  2  0  0  0  0
 92 99  1  0  0  0  0
 93100  1  0  0  0  0
101 96  1  1  0  0  0
 97102  2  0  0  0  0
 97103  1  0  0  0  0
 99104  1  1  0  0  0
 99105  1  0  0  0  0
100106  1  0  0  0  0
101107  1  0  0  0  0
101108  1  0  0  0  0
105109  1  0  0  0  0
106110  1  0  0  0  0
107111  2  0  0  0  0
107112  1  0  0  0  0
108113  1  0  0  0  0
108114  1  0  0  0  0
109115  2  0  0  0  0
109116  1  0  0  0  0
110117  2  0  0  0  0
110118  1  0  0  0  0
119112  1  6  0  0  0
119120  1  0  0  0  0
119121  1  0  0  0  0
120122  2  0  0  0  0
120123  1  0  0  0  0
121124  1  0  0  0  0
125123  1  1  0  0  0
124126  1  0  0  0  0
125127  1  0  0  0  0
125128  1  0  0  0  0
126129  1  0  0  0  0
127130  2  0  0  0  0
127131  1  0  0  0  0
129132  1  0  0  0  0
133131  1  6  0  0  0
133134  1  0  0  0  0
133135  1  0  0  0  0
134136  2  0  0  0  0
134137  1  0  0  0  0
135138  1  0  0  0  0
139137  1  1  0  0  0
139140  1  0  0  0  0
139141  1  0  0  0  0
140142  2  0  0  0  0
140143  1  0  0  0  0
141144  1  0  0  0  0
145143  1  6  0  0  0
144146  1  0  0  0  0
145147  1  0  0  0  0
145148  1  0  0  0  0
146149  2  0  0  0  0
146150  1  0  0  0  0
147151  2  0  0  0  0
147152  1  0  0  0  0
148153  1  0  0  0  0
154152  1  1  0  0  0
153155  1  0  0  0  0
154156  1  0  0  0  0
154157  1  0  0  0  0
155158  2  0  0  0  0
155159  1  0  0  0  0
156160  2  0  0  0  0
156161  1  0  0  0  0
162161  1  6  0  0  0
162163  1  0  0  0  0
162164  1  0  0  0  0
163165  2  0  0  0  0
163166  1  0  0  0  0
164167  1  0  0  0  0
168166  1  1  0  0  0
168169  1  0  0  0  0
168170  1  0  0  0  0
169171  2  0  0  0  0
169172  1  0  0  0  0
170173  1  0  0  0  0
173174  1  0  0  0  0
174175  2  0  0  0  0
174176  1  0  0  0  0
 31 36  1  0  0  0  0
 89 94  1  0  0  0  0
M  END
>  <MolRegNo>
1625070

>  <m>
=

>  <Value>
1300

>  <Unit>
nM

>  <Type>
Ki

>  <pValue>
5.89

>  <Ligand Efficiency>
0

>  <Binding Efficiency>
2.29

>  <Surface Efficiency>
0

>  <Assay Index>
831551

>  <Assay Category>


>  <Assay Organism>
Homo sapiens

>  <Target ID>
56

>  <Target Name>
Androgen Receptor

>  <Target Organism>
Homo sapiens

>  <Target Description>
Target is a single protein chain

>  <Sequence Accession>
P10275

>  <Reference>
Medchemcomm 4 (1), 187-192 (2013)

>  <Pubmed ID>


>  <DOI>
10.1039/C2MD20182H

$$$$
1625071
Actelion Java MolfileCreator 1.0

181184  0  0  0  0  0  0  0  0999 V2000
    0.0000   -0.0000   -0.0000 S   0  0  0  0  0  0  0  0  0  0  0  0
   -1.3230    0.7628   -0.0000 C   0  0  0  0  0  0  0  0  0  0  0  0
   -1.3349    2.2765   -0.0000 C   0  0  0  0  0  0  0  0  0  0  0  0
   -2.6459    3.0392   -0.0000 N   0  0  0  0  0  0  0  0  0  0  0  0
   -0.0358    3.0392   -0.0000 C   0  0  0  0  0  0  0  0  0  0  0  0
   -3.9570    2.3003   -0.0000 C   0  0  0  0  0  0  0  0  0  0  0  0
   -0.0477    4.5529   -0.0000 O   0  0  0  0  0  0  0  0  0  0  0  0
    1.2395    2.2884   -0.0000 N   0  0  0  0  0  0  0  0  0  0  0  0
   -3.9689    0.7985   -0.0000 O   0  0  0  0  0  0  0  0  0  0  0  0
   -5.2799    3.0631   -0.0000 C   0  0  0  0  0  0  0  0  0  0  0  0
    2.5267    3.0512   -0.0000 C   0  0  0  0  0  0  0  0  0  0  0  0
   -6.5910    2.3241   -0.0000 N   0  0  0  0  0  0  0  0  0  0  0  0
   -5.2919    4.5767   -0.0000 C   0  0  0  0  0  0  0  0  0  0  0  0
    3.8140    2.3003   -0.0000 C   0  0  0  0  0  0  0  0  0  0  0  0
    2.5148    4.5648   -0.0000 C   0  0  0  0  0  0  0  0  0  0  0  0
   -7.9020    3.0869   -0.0000 C   0  0  0  0  0  0  0  0  0  0  0  0
   -3.9927    5.3395   -0.0000 C   0  0  0  0  0  0  0  0  0  0  0  0
    3.8020    0.8105   -0.0000 O   0  0  0  0  0  0  0  0  0  0  0  0
    5.1012    3.0631   -0.0000 N   0  0  0  0  0  0  0  0  0  0  0  0
    1.2038    5.3276   -0.0000 C   0  0  0  0  0  0  0  0  0  0  0  0
    3.8020    5.3276   -0.0000 C   0  0  0  0  0  0  0  0  0  0  0  0
   -7.9139    4.6006   -0.0000 O   0  0  0  0  0  0  0  0  0  0  0  0
   -9.2250    2.3480   -0.0000 C   0  0  0  0  0  0  0  0  0  0  0  0
   -2.7174    4.6006   -0.0000 C   0  0  0  0  0  0  0  0  0  0  0  0
   -4.0046    6.8532   -0.0000 C   0  0  0  0  0  0  0  0  0  0  0  0
    6.3884    2.3241   -0.0000 C   0  0  0  0  0  0  0  0  0  0  0  0
    1.1919    6.8413   -0.0000 C   0  0  0  0  0  0  0  0  0  0  0  0
  -10.5360    3.1108   -0.0000 N   0  0  0  0  0  0  0  0  0  0  0  0
   -9.2369    0.8462   -0.0000 C   0  0  0  0  0  0  0  0  0  0  0  0
   -1.4302    5.3634   -0.0000 C   0  0  0  0  0  0  0  0  0  0  0  0
   -2.7294    7.6160   -0.0000 C   0  0  0  0  0  0  0  0  0  0  0  0
    7.6756    3.0869   -0.0000 C   0  0  0  0  0  0  0  0  0  0  0  0
    6.3764    0.8343   -0.0000 C   0  0  0  0  0  0  0  0  0  0  0  0
  -11.8471    2.3718   -0.0000 C   0  0  0  0  0  0  0  0  0  0  0  0
   -7.9378    0.1073   -0.0000 C   0  0  0  0  0  0  0  0  0  0  0  0
   -1.4422    6.8770   -0.0000 C   0  0  0  0  0  0  0  0  0  0  0  0
    7.6637    4.6006   -0.0000 O   0  0  0  0  0  0  0  0  0  0  0  0
    8.9747    2.3480   -0.0000 N   0  0  0  0  0  0  0  0  0  0  0  0
    7.6637    0.0953   -0.0000 C   0  0  0  0  0  0  0  0  0  0  0  0
  -11.8590    0.8820   -0.0000 O   0  0  0  0  0  0  0  0  0  0  0  0
  -13.1581    3.1346   -0.0000 C   0  0  0  0  0  0  0  0  0  0  0  0
   -7.9497   -1.3826   -0.0000 C   0  0  0  0  0  0  0  0  0  0  0  0
   -6.6625    0.8701   -0.0000 C   0  0  0  0  0  0  0  0  0  0  0  0
   10.2619    3.1108   -0.0000 C   0  0  0  0  0  0  0  0  0  0  0  0
    7.6517   -1.3945   -0.0000 C   0  0  0  0  0  0  0  0  0  0  0  0
  -14.4692    2.3956   -0.0000 N   0  0  0  0  0  0  0  0  0  0  0  0
  -13.1700    4.6483   -0.0000 C   0  0  0  0  0  0  0  0  0  0  0  0
   11.5610    2.3718   -0.0000 C   0  0  0  0  0  0  0  0  0  0  0  0
    8.9389   -2.1334   -0.0000 O   0  0  0  0  0  0  0  0  0  0  0  0
    6.3288   -2.1453   -0.0000 N   0  0  0  0  0  0  0  0  0  0  0  0
  -15.7802    3.1584   -0.0000 C   0  0  0  0  0  0  0  0  0  0  0  0
  -11.8828    5.4230   -0.0000 C   0  0  0  0  0  0  0  0  0  0  0  0
   11.5491    0.8820   -0.0000 O   0  0  0  0  0  0  0  0  0  0  0  0
   12.8482    3.1346   -0.0000 N   0  0  0  0  0  0  0  0  0  0  0  0
  -15.7921    4.6721   -0.0000 O   0  0  0  0  0  0  0  0  0  0  0  0
  -17.0793    2.4195   -0.0000 C   0  0  0  0  0  0  0  0  0  0  0  0
  -11.8948    6.9366   -0.0000 C   0  0  0  0  0  0  0  0  0  0  0  0
   14.1474    2.3956   -0.0000 C   0  0  0  0  0  0  0  0  0  0  0  0
  -18.3904    3.1823   -0.0000 N   0  0  0  0  0  0  0  0  0  0  0  0
  -17.0913    0.9297   -0.0000 C   0  0  0  0  0  0  0  0  0  0  0  0
  -10.6076    7.6994   -0.0000 O   0  0  0  0  0  0  0  0  0  0  0  0
  -13.2058    7.6994   -0.0000 O   0  0  0  0  0  0  0  0  0  0  0  0
   15.4346    3.1584   -0.0000 C   0  0  0  0  0  0  0  0  0  0  0  0
   14.1355    0.9058   -0.0000 C   0  0  0  0  0  0  0  0  0  0  0  0
  -19.7014    2.4433   -0.0000 C   0  0  0  0  0  0  0  0  0  0  0  0
  -15.8160    0.1907   -0.0000 S   0  0  0  0  0  0  0  0  0  0  0  0
   15.4227    4.6721   -0.0000 O   0  0  0  0  0  0  0  0  0  0  0  0
   16.7337    2.4076   -0.0000 N   0  0  0  0  0  0  0  0  0  0  0  0
   15.4227    0.1669   -0.0000 O   0  0  0  0  0  0  0  0  0  0  0  0
   12.8125    0.1669   -0.0000 C   0  0  0  0  0  0  0  0  0  0  0  0
  -19.7134    0.9535   -0.0000 O   0  0  0  0  0  0  0  0  0  0  0  0
  -21.0125    3.2061   -0.0000 C   0  0  0  0  0  0  0  0  0  0  0  0
   18.0209    3.1703   -0.0000 C   0  0  0  0  0  0  0  0  0  0  0  0
  -22.3235    2.4671   -0.0000 N   0  0  0  0  0  0  0  0  0  0  0  0
  -21.0244    4.7198   -0.0000 C   0  0  0  0  0  0  0  0  0  0  0  0
   19.3200    2.4195   -0.0000 C   0  0  0  0  0  0  0  0  0  0  0  0
  -23.6465    3.2299   -0.0000 C   0  0  0  0  0  0  0  0  0  0  0  0
  -19.7372    5.4826   -0.0000 C   0  0  0  0  0  0  0  0  0  0  0  0
   19.3081    0.9297   -0.0000 O   0  0  0  0  0  0  0  0  0  0  0  0
   20.6073    3.1823   -0.0000 N   0  0  0  0  0  0  0  0  0  0  0  0
  -23.6584    4.7436   -0.0000 O   0  0  0  0  0  0  0  0  0  0  0  0
  -24.9695    2.4910   -0.0000 C   0  0  0  0  0  0  0  0  0  0  0  0
  -18.4738    4.7436   -0.0000 C   0  0  0  0  0  0  0  0  0  0  0  0
  -19.7491    6.9962   -0.0000 C   0  0  0  0  0  0  0  0  0  0  0  0
   21.9064    2.4433   -0.0000 C   0  0  0  0  0  0  0  0  0  0  0  0
  -26.2805    3.2538   -0.0000 N   0  0  0  0  0  0  0  0  0  0  0  0
  -24.9814    1.0012   -0.0000 C   0  0  0  0  0  0  0  0  0  0  0  0
  -17.1747    5.5064   -0.0000 C   0  0  0  0  0  0  0  0  0  0  0  0
  -18.4738    7.7590   -0.0000 C   0  0  0  0  0  0  0  0  0  0  0  0
   23.1936    3.2061   -0.0000 C   0  0  0  0  0  0  0  0  0  0  0  0
   21.8945    0.9535   -0.0000 C   0  0  0  0  0  0  0  0  0  0  0  0
  -27.6035    2.5148   -0.0000 C   0  0  0  0  0  0  0  0  0  0  0  0
  -23.6823    0.2622   -0.0000 C   0  0  0  0  0  0  0  0  0  0  0  0
  -17.1866    7.0201   -0.0000 C   0  0  0  0  0  0  0  0  0  0  0  0
   23.1817    4.7198   -0.0000 O   0  0  0  0  0  0  0  0  0  0  0  0
   24.4808    2.4671   -0.0000 N   0  0  0  0  0  0  0  0  0  0  0  0
   23.1817    0.2145   -0.0000 C   0  0  0  0  0  0  0  0  0  0  0  0
  -27.6154    1.0250   -0.0000 O   0  0  0  0  0  0  0  0  0  0  0  0
  -28.9026    3.2776   -0.0000 C   0  0  0  0  0  0  0  0  0  0  0  0
  -23.6942   -1.2276   -0.0000 C   0  0  0  0  0  0  0  0  0  0  0  0
   25.7680    3.2299   -0.0000 C   0  0  0  0  0  0  0  0  0  0  0  0
   23.1698   -1.2753   -0.0000 O   0  0  0  0  0  0  0  0  0  0  0  0
   24.4689    0.9773   -0.0000 O   0  0  0  0  0  0  0  0  0  0  0  0
  -30.2375    2.5387   -0.0000 N   0  0  0  0  0  0  0  0  0  0  0  0
  -28.9145    4.8032   -0.0000 C   0  0  0  0  0  0  0  0  0  0  0  0
  -22.3950   -1.9666   -0.0000 N   0  0  0  0  0  0  0  0  0  0  0  0
   27.0552    2.4910   -0.0000 C   0  0  0  0  0  0  0  0  0  0  0  0
   25.7561    4.7436   -0.0000 C   0  0  0  0  0  0  0  0  0  0  0  0
  -27.6273    5.5660   -0.0000 C   0  0  0  0  0  0  0  0  0  0  0  0
  -22.4070   -3.4564   -0.0000 C   0  0  0  0  0  0  0  0  0  0  0  0
   27.0433    1.0012   -0.0000 O   0  0  0  0  0  0  0  0  0  0  0  0
   28.3424    3.2538   -0.0000 N   0  0  0  0  0  0  0  0  0  0  0  0
   27.0433    5.5064   -0.0000 C   0  0  0  0  0  0  0  0  0  0  0  0
   24.4450    5.5064   -0.0000 C   0  0  0  0  0  0  0  0  0  0  0  0
  -27.6392    7.0796   -0.0000 O   0  0  0  0  0  0  0  0  0  0  0  0
  -26.3282    4.8270   -0.0000 N   0  0  0  0  0  0  0  0  0  0  0  0
  -21.1317   -4.1953   -0.0000 N   0  0  0  0  0  0  0  0  0  0  0  0
  -23.7418   -4.1953   -0.0000 N   0  0  0  0  0  0  0  0  0  0  0  0
   29.6296    2.5148   -0.0000 C   0  0  0  0  0  0  0  0  0  0  0  0
   30.9168    3.2776   -0.0000 C   0  0  0  0  0  0  0  0  0  0  0  0
   29.6177    1.0250   -0.0000 C   0  0  0  0  0  0  0  0  0  0  0  0
   30.9049    4.7913   -0.0000 O   0  0  0  0  0  0  0  0  0  0  0  0
   32.2040    2.5387   -0.0000 N   0  0  0  0  0  0  0  0  0  0  0  0
   30.9049    0.2860   -0.0000 C   0  0  0  0  0  0  0  0  0  0  0  0
   33.4913    3.3015   -0.0000 C   0  0  0  0  0  0  0  0  0  0  0  0
   30.8930   -1.2038   -0.0000 C   0  0  0  0  0  0  0  0  0  0  0  0
   34.7785    2.5625   -0.0000 C   0  0  0  0  0  0  0  0  0  0  0  0
   33.4793    4.8270   -0.0000 C   0  0  0  0  0  0  0  0  0  0  0  0
   32.1802   -1.9427   -0.0000 C   0  0  0  0  0  0  0  0  0  0  0  0
   34.7665    1.0727   -0.0000 O   0  0  0  0  0  0  0  0  0  0  0  0
   36.0657    3.3253   -0.0000 N   0  0  0  0  0  0  0  0  0  0  0  0
   32.1683   -3.4445   -0.0000 N   0  0  0  0  0  0  0  0  0  0  0  0
   37.3648    2.5863   -0.0000 C   0  0  0  0  0  0  0  0  0  0  0  0
   38.6520    3.3491   -0.0000 C   0  0  0  0  0  0  0  0  0  0  0  0
   37.3529    1.0965   -0.0000 C   0  0  0  0  0  0  0  0  0  0  0  0
   38.6401    4.8628   -0.0000 O   0  0  0  0  0  0  0  0  0  0  0  0
   39.9511    2.6102   -0.0000 N   0  0  0  0  0  0  0  0  0  0  0  0
   38.6401    0.3576   -0.0000 S   0  0  0  0  0  0  0  0  0  0  0  0
   41.2383    3.3730   -0.0000 C   0  0  0  0  0  0  0  0  0  0  0  0
   42.5375    2.6340   -0.0000 C   0  0  0  0  0  0  0  0  0  0  0  0
   41.2264    4.8866   -0.0000 C   0  0  0  0  0  0  0  0  0  0  0  0
   42.5256    1.1442   -0.0000 O   0  0  0  0  0  0  0  0  0  0  0  0
   43.8247    3.3968   -0.0000 N   0  0  0  0  0  0  0  0  0  0  0  0
   42.5256    5.6494   -0.0000 C   0  0  0  0  0  0  0  0  0  0  0  0
   45.1238    2.6578   -0.0000 C   0  0  0  0  0  0  0  0  0  0  0  0
   42.5136    7.1631   -0.0000 C   0  0  0  0  0  0  0  0  0  0  0  0
   46.4110    3.4206   -0.0000 C   0  0  0  0  0  0  0  0  0  0  0  0
   45.1119    1.1680   -0.0000 C   0  0  0  0  0  0  0  0  0  0  0  0
   43.8008    7.9378   -0.0000 O   0  0  0  0  0  0  0  0  0  0  0  0
   41.2026    7.9259   -0.0000 O   0  0  0  0  0  0  0  0  0  0  0  0
   46.3991    4.9343   -0.0000 O   0  0  0  0  0  0  0  0  0  0  0  0
   47.7101    2.6817   -0.0000 N   0  0  0  0  0  0  0  0  0  0  0  0
   46.3991    0.4291   -0.0000 C   0  0  0  0  0  0  0  0  0  0  0  0
   48.9974    3.4445   -0.0000 C   0  0  0  0  0  0  0  0  0  0  0  0
   46.5421   -1.0608   -0.0000 C   0  0  0  0  0  0  0  0  0  0  0  0
   47.7697    1.0488   -0.0000 C   0  0  0  0  0  0  0  0  0  0  0  0
   50.2965    2.7055   -0.0000 C   0  0  0  0  0  0  0  0  0  0  0  0
   48.9854    4.9581   -0.0000 C   0  0  0  0  0  0  0  0  0  0  0  0
   48.0081   -1.3587   -0.0000 C   0  0  0  0  0  0  0  0  0  0  0  0
   45.5171   -2.1692   -0.0000 C   0  0  0  0  0  0  0  0  0  0  0  0
   48.7590   -0.0596   -0.0000 N   0  0  0  0  0  0  0  0  0  0  0  0
   50.2846    1.2038   -0.0000 O   0  0  0  0  0  0  0  0  0  0  0  0
   51.5837    3.4683   -0.0000 N   0  0  0  0  0  0  0  0  0  0  0  0
   48.4610   -2.7770   -0.0000 C   0  0  0  0  0  0  0  0  0  0  0  0
   45.9700   -3.5875   -0.0000 C   0  0  0  0  0  0  0  0  0  0  0  0
   52.8709    2.7294   -0.0000 C   0  0  0  0  0  0  0  0  0  0  0  0
   47.4360   -3.8855   -0.0000 C   0  0  0  0  0  0  0  0  0  0  0  0
   54.1581    3.4921   -0.0000 C   0  0  0  0  0  0  0  0  0  0  0  0
   52.8590    1.2276   -0.0000 C   0  0  0  0  0  0  0  0  0  0  0  0
   54.1462    5.0058   -0.0000 O   0  0  0  0  0  0  0  0  0  0  0  0
   55.4453    2.7532   -0.0000 N   0  0  0  0  0  0  0  0  0  0  0  0
   54.1462    0.4887   -0.0000 S   0  0  0  0  0  0  0  0  0  0  0  0
   56.7325    3.5160   -0.0000 C   0  0  0  0  0  0  0  0  0  0  0  0
   58.0197    2.7770   -0.0000 C   0  0  0  0  0  0  0  0  0  0  0  0
   56.7206    5.0296   -0.0000 C   0  0  0  0  0  0  0  0  0  0  0  0
   58.0078    1.2872   -0.0000 O   0  0  0  0  0  0  0  0  0  0  0  0
   59.3069    3.5398   -0.0000 O   0  0  0  0  0  0  0  0  0  0  0  0
   58.0078    5.7924   -0.0000 C   0  0  0  0  0  0  0  0  0  0  0  0
   57.9959    7.3061   -0.0000 C   0  0  0  0  0  0  0  0  0  0  0  0
   59.2950    8.0689   -0.0000 O   0  0  0  0  0  0  0  0  0  0  0  0
   56.6848    8.0689   -0.0000 N   0  0  0  0  0  0  0  0  0  0  0  0
  1  2  1  0  0  0  0
  2  3  1  0  0  0  0
  3  4  1  6  0  0  0
  3  5  1  0  0  0  0
  4  6  1  0  0  0  0
  5  7  2  0  0  0  0
  5  8  1  0  0  0  0
  6  9  2  0  0  0  0
  6 10  1  0  0  0  0
 11  8  1  1  0  0  0
 10 12  1  1  0  0  0
 10 13  1  0  0  0  0
 11 14  1  0  0  0  0
 11 15  1  0  0  0  0
 12 16  1  0  0  0  0
 13 17  1  0  0  0  0
 14 18  2  0  0  0  0
 14 19  1  0  0  0  0
 15 20  1  0  0  0  0
 15 21  1  6  0  0  0
 16 22  2  0  0  0  0
 16 23  1  0  0  0  0
 17 24  2  0  0  0  0
 17 25  1  0  0  0  0
 26 19  1  6  0  0  0
 20 27  1  0  0  0  0
 23 28  1  6  0  0  0
 23 29  1  0  0  0  0
 24 30  1  0  0  0  0
 25 31  2  0  0  0  0
 26 32  1  0  0  0  0
 26 33  1  0  0  0  0
 28 34  1  0  0  0  0
 29 35  1  0  0  0  0
 30 36  2  0  0  0  0
 32 37  2  0  0  0  0
 32 38  1  0  0  0  0
 33 39  1  0  0  0  0
 34 40  2  0  0  0  0
 34 41  1  0  0  0  0
 35 42  1  0  0  0  0
 35 43  1  0  0  0  0
 38 44  1  0  0  0  0
 39 45  1  0  0  0  0
 41 46  1  1  0  0  0
 41 47  1  0  0  0  0
 44 48  1  0  0  0  0
 45 49  2  0  0  0  0
 45 50  1  0  0  0  0
 46 51  1  0  0  0  0
 47 52  1  0  0  0  0
 48 53  2  0  0  0  0
 48 54  1  0  0  0  0
 51 55  2  0  0  0  0
 51 56  1  0  0  0  0
 52 57  1  0  0  0  0
 58 54  1  6  0  0  0
 56 59  1  6  0  0  0
 56 60  1  0  0  0  0
 57 61  2  0  0  0  0
 57 62  1  0  0  0  0
 58 63  1  0  0  0  0
 58 64  1  0  0  0  0
 59 65  1  0  0  0  0
 60 66  1  0  0  0  0
 63 67  2  0  0  0  0
 63 68  1  0  0  0  0
 64 69  1  6  0  0  0
 64 70  1  0  0  0  0
 65 71  2  0  0  0  0
 65 72  1  0  0  0  0
 68 73  1  0  0  0  0
 72 74  1  1  0  0  0
 72 75  1  0  0  0  0
 73 76  1  0  0  0  0
 74 77  1  0  0  0  0
 75 78  1  0  0  0  0
 76 79  2  0  0  0  0
 76 80  1  0  0  0  0
 77 81  2  0  0  0  0
 77 82  1  0  0  0  0
 78 83  2  0  0  0  0
 78 84  1  0  0  0  0
 85 80  1  6  0  0  0
 82 86  1  6  0  0  0
 82 87  1  0  0  0  0
 83 88  1  0  0  0  0
 84 89  2  0  0  0  0
 85 90  1  0  0  0  0
 85 91  1  0  0  0  0
 86 92  1  0  0  0  0
 87 93  1  0  0  0  0
 88 94  2  0  0  0  0
 90 95  2  0  0  0  0
 90 96  1  0  0  0  0
 91 97  1  0  0  0  0
 92 98  2  0  0  0  0
 92 99  1  0  0  0  0
 93100  1  0  0  0  0
101 96  1  1  0  0  0
 97102  2  0  0  0  0
 97103  1  0  0  0  0
 99104  1  1  0  0  0
 99105  1  0  0  0  0
100106  1  0  0  0  0
101107  1  0  0  0  0
101108  1  0  0  0  0
105109  1  0  0  0  0
106110  1  0  0  0  0
107111  2  0  0  0  0
107112  1  0  0  0  0
108113  1  0  0  0  0
108114  1  0  0  0  0
109115  2  0  0  0  0
109116  1  0  0  0  0
110117  2  0  0  0  0
110118  1  0  0  0  0
119112  1  6  0  0  0
119120  1  0  0  0  0
119121  1  0  0  0  0
120122  2  0  0  0  0
120123  1  0  0  0  0
121124  1  0  0  0  0
125123  1  1  0  0  0
124126  1  0  0  0  0
125127  1  0  0  0  0
125128  1  0  0  0  0
126129  1  0  0  0  0
127130  2  0  0  0  0
127131  1  0  0  0  0
129132  1  0  0  0  0
133131  1  6  0  0  0
133134  1  0  0  0  0
133135  1  0  0  0  0
134136  2  0  0  0  0
134137  1  0  0  0  0
135138  1  0  0  0  0
139137  1  1  0  0  0
139140  1  0  0  0  0
139141  1  0  0  0  0
140142  2  0  0  0  0
140143  1  0  0  0  0
141144  1  0  0  0  0
145143  1  6  0  0  0
144146  1  0  0  0  0
145147  1  0  0  0  0
145148  1  0  0  0  0
146149  2  0  0  0  0
146150  1  0  0  0  0
147151  2  0  0  0  0
147152  1  0  0  0  0
148153  1  0  0  0  0
154152  1  1  0  0  0
153155  1  0  0  0  0
153156  2  0  0  0  0
154157  1  0  0  0  0
154158  1  0  0  0  0
155159  2  0  0  0  0
155160  1  0  0  0  0
156161  1  0  0  0  0
157162  2  0  0  0  0
157163  1  0  0  0  0
159164  1  0  0  0  0
160165  2  0  0  0  0
166163  1  6  0  0  0
164167  2  0  0  0  0
166168  1  0  0  0  0
166169  1  0  0  0  0
168170  2  0  0  0  0
168171  1  0  0  0  0
169172  1  0  0  0  0
173171  1  1  0  0  0
173174  1  0  0  0  0
173175  1  0  0  0  0
174176  2  0  0  0  0
174177  1  0  0  0  0
175178  1  0  0  0  0
178179  1  0  0  0  0
179180  2  0  0  0  0
179181  1  0  0  0  0
 31 36  1  0  0  0  0
 89 94  1  0  0  0  0
159161  1  0  0  0  0
165167  1  0  0  0  0
M  END
>  <MolRegNo>
1625071

>  <m>
=

>  <Value>
4100

>  <Unit>
nM

>  <Type>
Ki

>  <pValue>
5.39

>  <Ligand Efficiency>
0

>  <Binding Efficiency>
2.05

>  <Surface Efficiency>
0

>  <Assay Index>
831551

>  <Assay Category>


>  <Assay Organism>
Homo sapiens

>  <Target ID>
56

>  <Target Name>
Androgen Receptor

>  <Target Organism>
Homo sapiens

>  <Target Description>
Target is a single protein chain

>  <Sequence Accession>
P10275

>  <Reference>
Medchemcomm 4 (1), 187-192 (2013)

>  <Pubmed ID>


>  <DOI>
10.1039/C2MD20182H

$$$$
1950105
Actelion Java MolfileCreator 1.0

 34 36  0  0  0  0  0  0  0  0999 V2000
    0.0000   -0.0000   -0.0000 S   0  0  0  0  0  0  0  0  0  0  0  0
    0.2518   -1.2340   -0.0000 C   0  0  0  0  0  0  0  0  0  0  0  0
    1.6873   -1.8762   -0.0000 N   0  0  0  0  0  0  0  0  0  0  0  0
   -0.8311   -2.4177   -0.0000 N   0  0  0  0  0  0  0  0  0  0  0  0
    3.0599   -1.0577   -0.0000 C   0  0  0  0  0  0  0  0  0  0  0  0
    1.5362   -3.4376   -0.0000 C   0  0  0  0  0  0  0  0  0  0  0  0
   -2.4303   -2.2414   -0.0000 C   0  0  0  0  0  0  0  0  0  0  0  0
   -0.0378   -3.7902   -0.0000 C   0  0  0  0  0  0  0  0  0  0  0  0
    4.4324   -1.8510   -0.0000 C   0  0  0  0  0  0  0  0  0  0  0  0
    3.0473    0.5540   -0.0000 C   0  0  0  0  0  0  0  0  0  0  0  0
    2.4806   -4.2687   -0.0000 O   0  0  0  0  0  0  0  0  0  0  0  0
   -2.9843   -0.7177   -0.0000 C   0  0  0  0  0  0  0  0  0  0  0  0
   -3.4754   -3.4502   -0.0000 C   0  0  0  0  0  0  0  0  0  0  0  0
    0.9066   -5.0494   -0.0000 C   0  0  0  0  0  0  0  0  0  0  0  0
   -1.3222   -3.8909   -0.0000 C   0  0  0  0  0  0  0  0  0  0  0  0
    5.8049   -1.0451   -0.0000 C   0  0  0  0  0  0  0  0  0  0  0  0
    4.4198    1.3599   -0.0000 C   0  0  0  0  0  0  0  0  0  0  0  0
   -4.5709   -0.4155   -0.0000 C   0  0  0  0  0  0  0  0  0  0  0  0
   -5.0620   -3.1480   -0.0000 C   0  0  0  0  0  0  0  0  0  0  0  0
    2.4806   -4.8731   -0.0000 O   0  0  0  0  0  0  0  0  0  0  0  0
    5.7923    0.5666   -0.0000 C   0  0  0  0  0  0  0  0  0  0  0  0
    7.1774   -1.8384   -0.0000 C   0  0  0  0  0  0  0  0  0  0  0  0
   -5.0116    0.8059   -0.0000 F   0  0  0  0  0  0  0  0  0  0  0  0
   -5.6160   -1.6244   -0.0000 C   0  0  0  0  0  0  0  0  0  0  0  0
    3.2236   -5.8931   -0.0000 C   0  0  0  0  0  0  0  0  0  0  0  0
    7.1649    1.3851   -0.0000 C   0  0  0  0  0  0  0  0  0  0  0  0
    8.2729   -1.1836   -0.0000 F   0  0  0  0  0  0  0  0  0  0  0  0
    7.1649   -3.1102   -0.0000 F   0  0  0  0  0  0  0  0  0  0  0  0
    8.2729   -2.4680   -0.0000 F   0  0  0  0  0  0  0  0  0  0  0  0
   -7.2026   -1.3348   -0.0000 C   0  0  0  0  0  0  0  0  0  0  0  0
    8.2604    2.0399   -0.0000 N   0  0  0  0  0  0  0  0  0  0  0  0
   -7.6559   -0.1133   -0.0000 O   0  0  0  0  0  0  0  0  0  0  0  0
   -8.2478   -2.5436   -0.0000 N   0  0  0  0  0  0  0  0  0  0  0  0
   -9.5196   -2.3043   -0.0000 C   0  0  0  0  0  0  0  0  0  0  0  0
  1  2  2  0  0  0  0
  2  3  1  0  0  0  0
  2  4  1  0  0  0  0
  3  5  1  0  0  0  0
  3  6  1  0  0  0  0
  4  7  1  0  0  0  0
  4  8  1  0  0  0  0
  5  9  2  0  0  0  0
  5 10  1  0  0  0  0
  6 11  2  0  0  0  0
  7 12  2  0  0  0  0
  7 13  1  0  0  0  0
  8 14  1  0  0  0  0
  8 15  1  0  0  0  0
  9 16  1  0  0  0  0
 10 17  2  0  0  0  0
 12 18  1  0  0  0  0
 13 19  2  0  0  0  0
 14 20  1  0  0  0  0
 16 21  2  0  0  0  0
 16 22  1  0  0  0  0
 18 23  1  0  0  0  0
 18 24  2  0  0  0  0
 20 25  1  0  0  0  0
 21 26  1  0  0  0  0
 22 27  1  0  0  0  0
 22 28  1  0  0  0  0
 22 29  1  0  0  0  0
 24 30  1  0  0  0  0
 26 31  3  0  0  0  0
 30 32  2  0  0  0  0
 30 33  1  0  0  0  0
 33 34  1  0  0  0  0
  6  8  1  0  0  0  0
 17 21  1  0  0  0  0
 19 24  1  0  0  0  0
M  END
>  <MolRegNo>
1950105

>  <m>
=

>  <Value>
68

>  <Unit>
nM

>  <Type>
Ki

>  <pValue>
7.17

>  <Ligand Efficiency>
0.29

>  <Binding Efficiency>
14.5

>  <Surface Efficiency>
8.37

>  <Assay Index>
948397

>  <Assay Category>


>  <Assay Organism>
Homo sapiens

>  <Target ID>
56

>  <Target Name>
Androgen Receptor

>  <Target Organism>
Homo sapiens

>  <Target Description>
Target is a single protein chain

>  <Sequence Accession>
P10275

>  <Reference>


>  <Pubmed ID>
26046313

>  <DOI>
10.1016/j.ejmech.2015.05.039

$$$$
1950536
Actelion Java MolfileCreator 1.0

 35 38  0  0  0  0  0  0  0  0999 V2000
    0.0000   -0.0000   -0.0000 S   0  0  0  0  0  0  0  0  0  0  0  0
    0.3662    1.2124   -0.0000 C   0  0  0  0  0  0  0  0  0  0  0  0
    1.8439    1.7302   -0.0000 N   0  0  0  0  0  0  0  0  0  0  0  0
   -0.5683    2.5006   -0.0000 N   0  0  0  0  0  0  0  0  0  0  0  0
    3.1068    0.8209   -0.0000 C   0  0  0  0  0  0  0  0  0  0  0  0
    1.8312    3.2836   -0.0000 C   0  0  0  0  0  0  0  0  0  0  0  0
   -2.1596    2.5132   -0.0000 C   0  0  0  0  0  0  0  0  0  0  0  0
    0.3410    3.7887   -0.0000 C   0  0  0  0  0  0  0  0  0  0  0  0
    2.8289   -0.7199   -0.0000 C   0  0  0  0  0  0  0  0  0  0  0  0
    4.5591    1.3766   -0.0000 C   0  0  0  0  0  0  0  0  0  0  0  0
    2.8416    4.0287   -0.0000 O   0  0  0  0  0  0  0  0  0  0  0  0
   -2.8542    1.0987   -0.0000 C   0  0  0  0  0  0  0  0  0  0  0  0
   -3.0562    3.8266   -0.0000 C   0  0  0  0  0  0  0  0  0  0  0  0
    1.7807    4.4455   -0.0000 C   0  0  0  0  0  0  0  0  0  0  0  0
   -0.9219    4.7233   -0.0000 C   0  0  0  0  0  0  0  0  0  0  0  0
    4.0287   -1.7049   -0.0000 C   0  0  0  0  0  0  0  0  0  0  0  0
    5.7589    0.3915   -0.0000 C   0  0  0  0  0  0  0  0  0  0  0  0
   -4.4328    0.9977   -0.0000 C   0  0  0  0  0  0  0  0  0  0  0  0
   -4.6349    3.7256   -0.0000 C   0  0  0  0  0  0  0  0  0  0  0  0
    1.9449    6.0241   -0.0000 C   0  0  0  0  0  0  0  0  0  0  0  0
   -0.7830    6.3398   -0.0000 C   0  0  0  0  0  0  0  0  0  0  0  0
    5.4937   -1.1366   -0.0000 C   0  0  0  0  0  0  0  0  0  0  0  0
    3.7508   -3.2457   -0.0000 C   0  0  0  0  0  0  0  0  0  0  0  0
   -4.9885   -0.1263   -0.0000 F   0  0  0  0  0  0  0  0  0  0  0  0
   -5.3295    2.3111   -0.0000 C   0  0  0  0  0  0  0  0  0  0  0  0
    0.6188    6.9965   -0.0000 O   0  0  0  0  0  0  0  0  0  0  0  0
    6.6934   -2.1217   -0.0000 C   0  0  0  0  0  0  0  0  0  0  0  0
    4.7107   -4.0413   -0.0000 F   0  0  0  0  0  0  0  0  0  0  0  0
    2.5637   -3.6751   -0.0000 F   0  0  0  0  0  0  0  0  0  0  0  0
    3.5235   -4.4707   -0.0000 F   0  0  0  0  0  0  0  0  0  0  0  0
   -6.9081    2.2101   -0.0000 C   0  0  0  0  0  0  0  0  0  0  0  0
    7.6532   -2.9173   -0.0000 N   0  0  0  0  0  0  0  0  0  0  0  0
   -7.4764    1.0861   -0.0000 O   0  0  0  0  0  0  0  0  0  0  0  0
   -7.8048    3.5235   -0.0000 N   0  0  0  0  0  0  0  0  0  0  0  0
   -9.0677    3.4478   -0.0000 C   0  0  0  0  0  0  0  0  0  0  0  0
  1  2  2  0  0  0  0
  2  3  1  0  0  0  0
  2  4  1  0  0  0  0
  3  5  1  0  0  0  0
  3  6  1  0  0  0  0
  4  7  1  0  0  0  0
  4  8  1  0  0  0  0
  5  9  2  0  0  0  0
  5 10  1  0  0  0  0
  6 11  2  0  0  0  0
  7 12  2  0  0  0  0
  7 13  1  0  0  0  0
  8 14  1  0  0  0  0
  8 15  1  0  0  0  0
  9 16  1  0  0  0  0
 10 17  2  0  0  0  0
 12 18  1  0  0  0  0
 13 19  2  0  0  0  0
 14 20  1  0  0  0  0
 15 21  1  0  0  0  0
 16 22  2  0  0  0  0
 16 23  1  0  0  0  0
 18 24  1  0  0  0  0
 18 25  2  0  0  0  0
 20 26  1  0  0  0  0
 22 27  1  0  0  0  0
 23 28  1  0  0  0  0
 23 29  1  0  0  0  0
 23 30  1  0  0  0  0
 25 31  1  0  0  0  0
 27 32  3  0  0  0  0
 31 33  2  0  0  0  0
 31 34  1  0  0  0  0
 34 35  1  0  0  0  0
  6  8  1  0  0  0  0
 17 22  1  0  0  0  0
 19 25  1  0  0  0  0
 21 26  1  0  0  0  0
M  END
>  <MolRegNo>
1950536

>  <m>
=

>  <Value>
126.1

>  <Unit>
nM

>  <Type>
Ki

>  <pValue>
6.9

>  <Ligand Efficiency>
0.27

>  <Binding Efficiency>
13.62

>  <Surface Efficiency>
8.05

>  <Assay Index>
948397

>  <Assay Category>


>  <Assay Organism>
Homo sapiens

>  <Target ID>
56

>  <Target Name>
Androgen Receptor

>  <Target Organism>
Homo sapiens

>  <Target Description>
Target is a single protein chain

>  <Sequence Accession>
P10275

>  <Reference>


>  <Pubmed ID>
26046313

>  <DOI>
10.1016/j.ejmech.2015.05.039

$$$$
1950534
Actelion Java MolfileCreator 1.0

 33 36  0  0  0  0  0  0  0  0999 V2000
    0.0000   -0.0000   -0.0000 S   0  0  0  0  0  0  0  0  0  0  0  0
    1.1866    0.3997   -0.0000 C   0  0  0  0  0  0  0  0  0  0  0  0
    1.6737    1.9236   -0.0000 N   0  0  0  0  0  0  0  0  0  0  0  0
    2.4482   -0.5246   -0.0000 N   0  0  0  0  0  0  0  0  0  0  0  0
    0.7369    3.2226   -0.0000 C   0  0  0  0  0  0  0  0  0  0  0  0
    3.2476    1.9236   -0.0000 C   0  0  0  0  0  0  0  0  0  0  0  0
    2.4357   -2.0984   -0.0000 C   0  0  0  0  0  0  0  0  0  0  0  0
    3.7222    0.4247   -0.0000 C   0  0  0  0  0  0  0  0  0  0  0  0
   -0.8369    2.9603   -0.0000 C   0  0  0  0  0  0  0  0  0  0  0  0
    1.2616    4.7090   -0.0000 C   0  0  0  0  0  0  0  0  0  0  0  0
    3.9845    2.9603   -0.0000 O   0  0  0  0  0  0  0  0  0  0  0  0
    0.9868   -2.7604   -0.0000 C   0  0  0  0  0  0  0  0  0  0  0  0
    3.7222   -2.9853   -0.0000 C   0  0  0  0  0  0  0  0  0  0  0  0
    4.5591   -0.8993   -0.0000 C   0  0  0  0  0  0  0  0  0  0  0  0
    4.7215    1.6363   -0.0000 C   0  0  0  0  0  0  0  0  0  0  0  0
   -1.8611    4.1844   -0.0000 C   0  0  0  0  0  0  0  0  0  0  0  0
    0.2373    5.9331   -0.0000 C   0  0  0  0  0  0  0  0  0  0  0  0
    0.8494   -4.3218   -0.0000 C   0  0  0  0  0  0  0  0  0  0  0  0
    3.5848   -4.5466   -0.0000 C   0  0  0  0  0  0  0  0  0  0  0  0
    6.0829   -0.4622   -0.0000 O   0  0  0  0  0  0  0  0  0  0  0  0
    6.1579    1.0617   -0.0000 C   0  0  0  0  0  0  0  0  0  0  0  0
   -1.3365    5.6832   -0.0000 C   0  0  0  0  0  0  0  0  0  0  0  0
   -3.4349    3.9221   -0.0000 C   0  0  0  0  0  0  0  0  0  0  0  0
   -0.2998   -4.8464   -0.0000 F   0  0  0  0  0  0  0  0  0  0  0  0
    2.1359   -5.2086   -0.0000 C   0  0  0  0  0  0  0  0  0  0  0  0
   -2.3607    6.9073   -0.0000 C   0  0  0  0  0  0  0  0  0  0  0  0
   -4.2593    4.8963   -0.0000 F   0  0  0  0  0  0  0  0  0  0  0  0
   -3.8721    2.7479   -0.0000 F   0  0  0  0  0  0  0  0  0  0  0  0
   -4.6965    3.7097   -0.0000 F   0  0  0  0  0  0  0  0  0  0  0  0
    1.9985   -6.7699   -0.0000 C   0  0  0  0  0  0  0  0  0  0  0  0
   -3.1851    7.8816   -0.0000 N   0  0  0  0  0  0  0  0  0  0  0  0
    3.0227   -7.4694   -0.0000 O   0  0  0  0  0  0  0  0  0  0  0  0
    0.8494   -7.3070   -0.0000 N   0  0  0  0  0  0  0  0  0  0  0  0
  1  2  2  0  0  0  0
  2  3  1  0  0  0  0
  2  4  1  0  0  0  0
  3  5  1  0  0  0  0
  3  6  1  0  0  0  0
  4  7  1  0  0  0  0
  8  4  1  1  0  0  0
  5  9  2  0  0  0  0
  5 10  1  0  0  0  0
  6 11  2  0  0  0  0
  7 12  2  0  0  0  0
  7 13  1  0  0  0  0
  8 14  1  0  0  0  0
  8 15  1  0  0  0  0
  9 16  1  0  0  0  0
 10 17  2  0  0  0  0
 12 18  1  0  0  0  0
 13 19  2  0  0  0  0
 14 20  1  0  0  0  0
 15 21  1  0  0  0  0
 16 22  2  0  0  0  0
 16 23  1  0  0  0  0
 18 24  1  0  0  0  0
 18 25  2  0  0  0  0
 22 26  1  0  0  0  0
 23 27  1  0  0  0  0
 23 28  1  0  0  0  0
 23 29  1  0  0  0  0
 25 30  1  0  0  0  0
 26 31  3  0  0  0  0
 30 32  2  0  0  0  0
 30 33  1  0  0  0  0
  6  8  1  0  0  0  0
 17 22  1  0  0  0  0
 19 25  1  0  0  0  0
 20 21  1  0  0  0  0
M  END
>  <MolRegNo>
1950534

>  <m>
=

>  <Value>
14.1

>  <Unit>
nM

>  <Type>
Ki

>  <pValue>
7.85

>  <Ligand Efficiency>
0.32

>  <Binding Efficiency>
16.41

>  <Surface Efficiency>
7.88

>  <Assay Index>
948397

>  <Assay Category>


>  <Assay Organism>
Homo sapiens

>  <Target ID>
56

>  <Target Name>
Androgen Receptor

>  <Target Organism>
Homo sapiens

>  <Target Description>
Target is a single protein chain

>  <Sequence Accession>
P10275

>  <Reference>


>  <Pubmed ID>
26046313

>  <DOI>
10.1016/j.ejmech.2015.05.039

$$$$
1950532
Actelion Java MolfileCreator 1.0

 34 37  0  0  0  0  0  0  0  0999 V2000
    0.0000   -0.0000   -0.0000 S   0  0  0  0  0  0  0  0  0  0  0  0
    1.1850    0.3992   -0.0000 C   0  0  0  0  0  0  0  0  0  0  0  0
    1.6714    1.9209   -0.0000 N   0  0  0  0  0  0  0  0  0  0  0  0
    2.4448   -0.5239   -0.0000 N   0  0  0  0  0  0  0  0  0  0  0  0
    0.7359    3.2182   -0.0000 C   0  0  0  0  0  0  0  0  0  0  0  0
    3.2431    1.9209   -0.0000 C   0  0  0  0  0  0  0  0  0  0  0  0
    2.4323   -2.0955   -0.0000 C   0  0  0  0  0  0  0  0  0  0  0  0
    3.7171    0.4241   -0.0000 C   0  0  0  0  0  0  0  0  0  0  0  0
   -0.8357    2.9562   -0.0000 C   0  0  0  0  0  0  0  0  0  0  0  0
    1.2598    4.7025   -0.0000 C   0  0  0  0  0  0  0  0  0  0  0  0
    3.9790    2.9562   -0.0000 O   0  0  0  0  0  0  0  0  0  0  0  0
    0.9854   -2.7566   -0.0000 C   0  0  0  0  0  0  0  0  0  0  0  0
    3.7171   -2.9812   -0.0000 C   0  0  0  0  0  0  0  0  0  0  0  0
    4.5528   -0.8981   -0.0000 C   0  0  0  0  0  0  0  0  0  0  0  0
    4.7150    1.6340   -0.0000 C   0  0  0  0  0  0  0  0  0  0  0  0
   -1.8585    4.1786   -0.0000 C   0  0  0  0  0  0  0  0  0  0  0  0
    0.2370    5.9249   -0.0000 C   0  0  0  0  0  0  0  0  0  0  0  0
    0.8482   -4.3158   -0.0000 C   0  0  0  0  0  0  0  0  0  0  0  0
    3.5799   -4.5403   -0.0000 C   0  0  0  0  0  0  0  0  0  0  0  0
    6.0746   -0.4615   -0.0000 O   0  0  0  0  0  0  0  0  0  0  0  0
    6.1494    1.0602   -0.0000 C   0  0  0  0  0  0  0  0  0  0  0  0
   -1.3347    5.6754   -0.0000 C   0  0  0  0  0  0  0  0  0  0  0  0
   -3.4302    3.9167   -0.0000 C   0  0  0  0  0  0  0  0  0  0  0  0
   -0.2994   -4.8397   -0.0000 F   0  0  0  0  0  0  0  0  0  0  0  0
    2.1330   -5.2014   -0.0000 C   0  0  0  0  0  0  0  0  0  0  0  0
   -2.3575    6.8978   -0.0000 C   0  0  0  0  0  0  0  0  0  0  0  0
   -4.2535    4.8896   -0.0000 F   0  0  0  0  0  0  0  0  0  0  0  0
   -3.8668    2.7442   -0.0000 F   0  0  0  0  0  0  0  0  0  0  0  0
   -4.6900    3.7046   -0.0000 F   0  0  0  0  0  0  0  0  0  0  0  0
    1.9958   -6.7606   -0.0000 C   0  0  0  0  0  0  0  0  0  0  0  0
   -3.1807    7.8708   -0.0000 N   0  0  0  0  0  0  0  0  0  0  0  0
    0.8482   -7.2970   -0.0000 O   0  0  0  0  0  0  0  0  0  0  0  0
    3.2805   -7.6462   -0.0000 O   0  0  0  0  0  0  0  0  0  0  0  0
    3.1683   -8.8936   -0.0000 C   0  0  0  0  0  0  0  0  0  0  0  0
  1  2  2  0  0  0  0
  2  3  1  0  0  0  0
  2  4  1  0  0  0  0
  3  5  1  0  0  0  0
  3  6  1  0  0  0  0
  4  7  1  0  0  0  0
  8  4  1  1  0  0  0
  5  9  2  0  0  0  0
  5 10  1  0  0  0  0
  6 11  2  0  0  0  0
  7 12  2  0  0  0  0
  7 13  1  0  0  0  0
  8 14  1  0  0  0  0
  8 15  1  0  0  0  0
  9 16  1  0  0  0  0
 10 17  2  0  0  0  0
 12 18  1  0  0  0  0
 13 19  2  0  0  0  0
 14 20  1  0  0  0  0
 15 21  1  0  0  0  0
 16 22  2  0  0  0  0
 16 23  1  0  0  0  0
 18 24  1  0  0  0  0
 18 25  2  0  0  0  0
 22 26  1  0  0  0  0
 23 27  1  0  0  0  0
 23 28  1  0  0  0  0
 23 29  1  0  0  0  0
 25 30  1  0  0  0  0
 26 31  3  0  0  0  0
 30 32  2  0  0  0  0
 30 33  1  0  0  0  0
 33 34  1  0  0  0  0
  6  8  1  0  0  0  0
 17 22  1  0  0  0  0
 19 25  1  0  0  0  0
 20 21  1  0  0  0  0
M  END
>  <MolRegNo>
1950532

>  <m>
=

>  <Value>
11.9

>  <Unit>
nM

>  <Type>
Ki

>  <pValue>
7.92

>  <Ligand Efficiency>
0.32

>  <Binding Efficiency>
16.06

>  <Surface Efficiency>
9.56

>  <Assay Index>
948397

>  <Assay Category>


>  <Assay Organism>
Homo sapiens

>  <Target ID>
56

>  <Target Name>
Androgen Receptor

>  <Target Organism>
Homo sapiens

>  <Target Description>
Target is a single protein chain

>  <Sequence Accession>
P10275

>  <Reference>


>  <Pubmed ID>
26046313

>  <DOI>
10.1016/j.ejmech.2015.05.039

$$$$
1950531
Actelion Java MolfileCreator 1.0

 34 37  0  0  0  0  0  0  0  0999 V2000
    0.0000   -0.0000   -0.0000 S   0  0  0  0  0  0  0  0  0  0  0  0
    1.1850    0.3992   -0.0000 C   0  0  0  0  0  0  0  0  0  0  0  0
    1.6714    1.9209   -0.0000 N   0  0  0  0  0  0  0  0  0  0  0  0
    2.4448   -0.5239   -0.0000 N   0  0  0  0  0  0  0  0  0  0  0  0
    0.7359    3.2182   -0.0000 C   0  0  0  0  0  0  0  0  0  0  0  0
    3.2431    1.9209   -0.0000 C   0  0  0  0  0  0  0  0  0  0  0  0
    2.4323   -2.0955   -0.0000 C   0  0  0  0  0  0  0  0  0  0  0  0
    3.7171    0.4241   -0.0000 C   0  0  0  0  0  0  0  0  0  0  0  0
   -0.8357    2.9562   -0.0000 C   0  0  0  0  0  0  0  0  0  0  0  0
    1.2598    4.7025   -0.0000 C   0  0  0  0  0  0  0  0  0  0  0  0
    3.9790    2.9562   -0.0000 O   0  0  0  0  0  0  0  0  0  0  0  0
    0.9854   -2.7566   -0.0000 C   0  0  0  0  0  0  0  0  0  0  0  0
    3.7171   -2.9812   -0.0000 C   0  0  0  0  0  0  0  0  0  0  0  0
    4.5528   -0.8981   -0.0000 C   0  0  0  0  0  0  0  0  0  0  0  0
    4.7150    1.6340   -0.0000 C   0  0  0  0  0  0  0  0  0  0  0  0
   -1.8585    4.1786   -0.0000 C   0  0  0  0  0  0  0  0  0  0  0  0
    0.2370    5.9249   -0.0000 C   0  0  0  0  0  0  0  0  0  0  0  0
    0.8482   -4.3158   -0.0000 C   0  0  0  0  0  0  0  0  0  0  0  0
    3.5799   -4.5403   -0.0000 C   0  0  0  0  0  0  0  0  0  0  0  0
    6.0746   -0.4615   -0.0000 O   0  0  0  0  0  0  0  0  0  0  0  0
    6.1494    1.0602   -0.0000 C   0  0  0  0  0  0  0  0  0  0  0  0
   -1.3347    5.6754   -0.0000 C   0  0  0  0  0  0  0  0  0  0  0  0
   -3.4302    3.9167   -0.0000 C   0  0  0  0  0  0  0  0  0  0  0  0
   -0.2994   -4.8397   -0.0000 F   0  0  0  0  0  0  0  0  0  0  0  0
    2.1330   -5.2014   -0.0000 C   0  0  0  0  0  0  0  0  0  0  0  0
   -2.3575    6.8978   -0.0000 C   0  0  0  0  0  0  0  0  0  0  0  0
   -4.2535    4.8896   -0.0000 F   0  0  0  0  0  0  0  0  0  0  0  0
   -3.8668    2.7442   -0.0000 F   0  0  0  0  0  0  0  0  0  0  0  0
   -4.6900    3.7046   -0.0000 F   0  0  0  0  0  0  0  0  0  0  0  0
    1.9958   -6.7606   -0.0000 C   0  0  0  0  0  0  0  0  0  0  0  0
   -3.1807    7.8708   -0.0000 N   0  0  0  0  0  0  0  0  0  0  0  0
    0.8482   -7.2970   -0.0000 O   0  0  0  0  0  0  0  0  0  0  0  0
    3.2805   -7.6462   -0.0000 N   0  0  0  0  0  0  0  0  0  0  0  0
    3.1683   -8.8936   -0.0000 C   0  0  0  0  0  0  0  0  0  0  0  0
  1  2  2  0  0  0  0
  2  3  1  0  0  0  0
  2  4  1  0  0  0  0
  3  5  1  0  0  0  0
  3  6  1  0  0  0  0
  4  7  1  0  0  0  0
  8  4  1  1  0  0  0
  5  9  2  0  0  0  0
  5 10  1  0  0  0  0
  6 11  2  0  0  0  0
  7 12  2  0  0  0  0
  7 13  1  0  0  0  0
  8 14  1  0  0  0  0
  8 15  1  0  0  0  0
  9 16  1  0  0  0  0
 10 17  2  0  0  0  0
 12 18  1  0  0  0  0
 13 19  2  0  0  0  0
 14 20  1  0  0  0  0
 15 21  1  0  0  0  0
 16 22  2  0  0  0  0
 16 23  1  0  0  0  0
 18 24  1  0  0  0  0
 18 25  2  0  0  0  0
 22 26  1  0  0  0  0
 23 27  1  0  0  0  0
 23 28  1  0  0  0  0
 23 29  1  0  0  0  0
 25 30  1  0  0  0  0
 26 31  3  0  0  0  0
 30 32  2  0  0  0  0
 30 33  1  0  0  0  0
 33 34  1  0  0  0  0
  6  8  1  0  0  0  0
 17 22  1  0  0  0  0
 19 25  1  0  0  0  0
 20 21  1  0  0  0  0
M  END
>  <MolRegNo>
1950531

>  <m>
=

>  <Value>
215.4

>  <Unit>
nM

>  <Type>
Ki

>  <pValue>
6.67

>  <Ligand Efficiency>
0.27

>  <Binding Efficiency>
13.54

>  <Surface Efficiency>
7.78

>  <Assay Index>
948397

>  <Assay Category>


>  <Assay Organism>
Homo sapiens

>  <Target ID>
56

>  <Target Name>
Androgen Receptor

>  <Target Organism>
Homo sapiens

>  <Target Description>
Target is a single protein chain

>  <Sequence Accession>
P10275

>  <Reference>


>  <Pubmed ID>
26046313

>  <DOI>
10.1016/j.ejmech.2015.05.039

$$$$
1950529
Actelion Java MolfileCreator 1.0

 34 37  0  0  0  0  0  0  0  0999 V2000
    0.0000   -0.0000   -0.0000 S   0  0  0  0  0  0  0  0  0  0  0  0
    1.1850    0.3992   -0.0000 C   0  0  0  0  0  0  0  0  0  0  0  0
    1.6714    1.9209   -0.0000 N   0  0  0  0  0  0  0  0  0  0  0  0
    2.4448   -0.5239   -0.0000 N   0  0  0  0  0  0  0  0  0  0  0  0
    0.7359    3.2182   -0.0000 C   0  0  0  0  0  0  0  0  0  0  0  0
    3.2431    1.9209   -0.0000 C   0  0  0  0  0  0  0  0  0  0  0  0
    2.4323   -2.0955   -0.0000 C   0  0  0  0  0  0  0  0  0  0  0  0
    3.7171    0.4241   -0.0000 C   0  0  0  0  0  0  0  0  0  0  0  0
   -0.8357    2.9562   -0.0000 C   0  0  0  0  0  0  0  0  0  0  0  0
    1.2598    4.7025   -0.0000 C   0  0  0  0  0  0  0  0  0  0  0  0
    3.9790    2.9562   -0.0000 O   0  0  0  0  0  0  0  0  0  0  0  0
    0.9854   -2.7566   -0.0000 C   0  0  0  0  0  0  0  0  0  0  0  0
    3.7171   -2.9812   -0.0000 C   0  0  0  0  0  0  0  0  0  0  0  0
    4.5528   -0.8981   -0.0000 C   0  0  0  0  0  0  0  0  0  0  0  0
    4.7150    1.6340   -0.0000 C   0  0  0  0  0  0  0  0  0  0  0  0
   -1.8585    4.1786   -0.0000 C   0  0  0  0  0  0  0  0  0  0  0  0
    0.2370    5.9249   -0.0000 C   0  0  0  0  0  0  0  0  0  0  0  0
    0.8482   -4.3158   -0.0000 C   0  0  0  0  0  0  0  0  0  0  0  0
    3.5799   -4.5403   -0.0000 C   0  0  0  0  0  0  0  0  0  0  0  0
    6.0746   -0.4615   -0.0000 O   0  0  0  0  0  0  0  0  0  0  0  0
    6.1494    1.0602   -0.0000 C   0  0  0  0  0  0  0  0  0  0  0  0
   -1.3347    5.6754   -0.0000 C   0  0  0  0  0  0  0  0  0  0  0  0
   -3.4302    3.9167   -0.0000 C   0  0  0  0  0  0  0  0  0  0  0  0
   -0.2994   -4.8397   -0.0000 F   0  0  0  0  0  0  0  0  0  0  0  0
    2.1330   -5.2014   -0.0000 C   0  0  0  0  0  0  0  0  0  0  0  0
   -2.3575    6.8978   -0.0000 C   0  0  0  0  0  0  0  0  0  0  0  0
   -4.2535    4.8896   -0.0000 F   0  0  0  0  0  0  0  0  0  0  0  0
   -3.8668    2.7442   -0.0000 F   0  0  0  0  0  0  0  0  0  0  0  0
   -4.6900    3.7046   -0.0000 F   0  0  0  0  0  0  0  0  0  0  0  0
    1.9958   -6.7606   -0.0000 C   0  0  0  0  0  0  0  0  0  0  0  0
   -3.1807    7.8708   -0.0000 N   0  0  0  0  0  0  0  0  0  0  0  0
    0.8482   -7.2970   -0.0000 O   0  0  0  0  0  0  0  0  0  0  0  0
    3.2805   -7.6462   -0.0000 N   0  0  0  0  0  0  0  0  0  0  0  0
    3.1683   -8.8936   -0.0000 C   0  0  0  0  0  0  0  0  0  0  0  0
  1  2  2  0  0  0  0
  2  3  1  0  0  0  0
  2  4  1  0  0  0  0
  3  5  1  0  0  0  0
  3  6  1  0  0  0  0
  4  7  1  0  0  0  0
  4  8  1  0  0  0  0
  5  9  2  0  0  0  0
  5 10  1  0  0  0  0
  6 11  2  0  0  0  0
  7 12  2  0  0  0  0
  7 13  1  0  0  0  0
  8 14  1  0  0  0  0
  8 15  1  0  0  0  0
  9 16  1  0  0  0  0
 10 17  2  0  0  0  0
 12 18  1  0  0  0  0
 13 19  2  0  0  0  0
 14 20  1  0  0  0  0
 15 21  1  0  0  0  0
 16 22  2  0  0  0  0
 16 23  1  0  0  0  0
 18 24  1  0  0  0  0
 18 25  2  0  0  0  0
 22 26  1  0  0  0  0
 23 27  1  0  0  0  0
 23 28  1  0  0  0  0
 23 29  1  0  0  0  0
 25 30  1  0  0  0  0
 26 31  3  0  0  0  0
 30 32  2  0  0  0  0
 30 33  1  0  0  0  0
 33 34  1  0  0  0  0
  6  8  1  0  0  0  0
 17 22  1  0  0  0  0
 19 25  1  0  0  0  0
 20 21  1  0  0  0  0
M  END
>  <MolRegNo>
1950529

>  <m>
=

>  <Value>
33.8

>  <Unit>
nM

>  <Type>
Ki

>  <pValue>
7.47

>  <Ligand Efficiency>
0.3

>  <Binding Efficiency>
15.17

>  <Surface Efficiency>
8.72

>  <Assay Index>
948397

>  <Assay Category>


>  <Assay Organism>
Homo sapiens

>  <Target ID>
56

>  <Target Name>
Androgen Receptor

>  <Target Organism>
Homo sapiens

>  <Target Description>
Target is a single protein chain

>  <Sequence Accession>
P10275

>  <Reference>


>  <Pubmed ID>
26046313

>  <DOI>
10.1016/j.ejmech.2015.05.039

$$$$
1672700
Actelion Java MolfileCreator 1.0

 33 36  0  0  0  0  0  0  0  0999 V2000
    0.0000   -0.0000   -0.0000 S   0  0  0  0  0  0  0  0  0  0  0  0
    1.2176   -0.8714   -0.0000 C   0  0  0  0  0  0  0  0  0  0  0  0
    1.2056   -2.3754   -0.0000 N   0  0  0  0  0  0  0  0  0  0  0  0
    2.6380   -0.4059   -0.0000 N   0  0  0  0  0  0  0  0  0  0  0  0
   -0.0358   -3.2588   -0.0000 C   0  0  0  0  0  0  0  0  0  0  0  0
    2.6261   -2.8410   -0.0000 C   0  0  0  0  0  0  0  0  0  0  0  0
    3.1036    1.0385   -0.0000 C   0  0  0  0  0  0  0  0  0  0  0  0
    3.5094   -1.6115   -0.0000 C   0  0  0  0  0  0  0  0  0  0  0  0
   -1.4205   -2.6261   -0.0000 C   0  0  0  0  0  0  0  0  0  0  0  0
    0.1074   -4.7509   -0.0000 C   0  0  0  0  0  0  0  0  0  0  0  0
    3.0916   -4.2614   -0.0000 O   0  0  0  0  0  0  0  0  0  0  0  0
    2.0651    2.1844   -0.0000 C   0  0  0  0  0  0  0  0  0  0  0  0
    4.5599    1.3608   -0.0000 C   0  0  0  0  0  0  0  0  0  0  0  0
    4.2495   -2.6739   -0.0000 C   0  0  0  0  0  0  0  0  0  0  0  0
    4.2495   -0.5372   -0.0000 C   0  0  0  0  0  0  0  0  0  0  0  0
   -2.6619   -3.4975   -0.0000 N   0  0  0  0  0  0  0  0  0  0  0  0
   -1.1221   -5.6222   -0.0000 C   0  0  0  0  0  0  0  0  0  0  0  0
    2.5306    3.6288   -0.0000 C   0  0  0  0  0  0  0  0  0  0  0  0
    5.0254    2.8052   -0.0000 C   0  0  0  0  0  0  0  0  0  0  0  0
    5.3119   -1.5876   -0.0000 C   0  0  0  0  0  0  0  0  0  0  0  0
   -2.5187   -4.9896   -0.0000 C   0  0  0  0  0  0  0  0  0  0  0  0
   -0.9788   -7.1263   -0.0000 C   0  0  0  0  0  0  0  0  0  0  0  0
    1.5040    4.7628   -0.0000 F   0  0  0  0  0  0  0  0  0  0  0  0
    3.9988    3.9511   -0.0000 C   0  0  0  0  0  0  0  0  0  0  0  0
   -3.7482   -5.8729   -0.0000 C   0  0  0  0  0  0  0  0  0  0  0  0
   -2.5067   -7.2695   -0.0000 F   0  0  0  0  0  0  0  0  0  0  0  0
    0.5133   -6.9592   -0.0000 F   0  0  0  0  0  0  0  0  0  0  0  0
   -0.8356   -8.6184   -0.0000 F   0  0  0  0  0  0  0  0  0  0  0  0
    4.4405    5.3954   -0.0000 C   0  0  0  0  0  0  0  0  0  0  0  0
   -4.9896   -6.7443   -0.0000 N   0  0  0  0  0  0  0  0  0  0  0  0
    3.4139    6.5294   -0.0000 O   0  0  0  0  0  0  0  0  0  0  0  0
    5.9087    5.7177   -0.0000 N   0  0  0  0  0  0  0  0  0  0  0  0
    6.3743    7.1621   -0.0000 C   0  0  0  0  0  0  0  0  0  0  0  0
  1  2  2  0  0  0  0
  2  3  1  0  0  0  0
  2  4  1  0  0  0  0
  3  5  1  0  0  0  0
  3  6  1  0  0  0  0
  4  7  1  0  0  0  0
  4  8  1  0  0  0  0
  5  9  2  0  0  0  0
  5 10  1  0  0  0  0
  6 11  2  0  0  0  0
  7 12  2  0  0  0  0
  7 13  1  0  0  0  0
  8 14  1  0  0  0  0
  8 15  1  0  0  0  0
  9 16  1  0  0  0  0
 10 17  2  0  0  0  0
 12 18  1  0  0  0  0
 13 19  2  0  0  0  0
 14 20  1  0  0  0  0
 16 21  2  0  0  0  0
 17 22  1  0  0  0  0
 18 23  1  0  0  0  0
 18 24  2  0  0  0  0
 21 25  1  0  0  0  0
 22 26  1  0  0  0  0
 22 27  1  0  0  0  0
 22 28  1  0  0  0  0
 24 29  1  0  0  0  0
 25 30  3  0  0  0  0
 29 31  2  0  0  0  0
 29 32  1  0  0  0  0
 32 33  1  0  0  0  0
  6  8  1  0  0  0  0
 15 20  1  0  0  0  0
 17 21  1  0  0  0  0
 19 24  1  0  0  0  0
M  END
>  <MolRegNo>
1672700

>  <m>
=

>  <Value>
34.7

>  <Unit>
nM

>  <Type>
Ki

>  <pValue>
7.46

>  <Ligand Efficiency>
0.31

>  <Binding Efficiency>
15.62

>  <Surface Efficiency>
8.35

>  <Assay Index>
948397

>  <Assay Category>


>  <Assay Organism>
Homo sapiens

>  <Target ID>
56

>  <Target Name>
Androgen Receptor

>  <Target Organism>
Homo sapiens

>  <Target Description>
Target is a single protein chain

>  <Sequence Accession>
P10275

>  <Reference>


>  <Pubmed ID>
26046313

>  <DOI>
10.1016/j.ejmech.2015.05.039

$$$$
1950110
Actelion Java MolfileCreator 1.0

 33 35  0  0  0  0  0  0  0  0999 V2000
    0.0000   -0.0000   -0.0000 S   0  0  0  0  0  0  0  0  0  0  0  0
    0.2522   -1.2358   -0.0000 C   0  0  0  0  0  0  0  0  0  0  0  0
    1.6898   -1.8790   -0.0000 N   0  0  0  0  0  0  0  0  0  0  0  0
   -0.8323   -2.4212   -0.0000 N   0  0  0  0  0  0  0  0  0  0  0  0
    3.0644   -1.0593   -0.0000 C   0  0  0  0  0  0  0  0  0  0  0  0
    1.5385   -3.4427   -0.0000 C   0  0  0  0  0  0  0  0  0  0  0  0
   -2.4338   -2.2447   -0.0000 C   0  0  0  0  0  0  0  0  0  0  0  0
   -0.0378   -3.7958   -0.0000 C   0  0  0  0  0  0  0  0  0  0  0  0
    4.4389   -1.8538   -0.0000 C   0  0  0  0  0  0  0  0  0  0  0  0
    3.0518    0.5549   -0.0000 C   0  0  0  0  0  0  0  0  0  0  0  0
    2.4843   -4.2750   -0.0000 O   0  0  0  0  0  0  0  0  0  0  0  0
   -2.9887   -0.7188   -0.0000 C   0  0  0  0  0  0  0  0  0  0  0  0
   -3.4805   -3.4553   -0.0000 C   0  0  0  0  0  0  0  0  0  0  0  0
    0.9080   -5.0569   -0.0000 C   0  0  0  0  0  0  0  0  0  0  0  0
   -1.3241   -3.8967   -0.0000 C   0  0  0  0  0  0  0  0  0  0  0  0
    5.8135   -1.0467   -0.0000 C   0  0  0  0  0  0  0  0  0  0  0  0
    4.4263    1.3619   -0.0000 C   0  0  0  0  0  0  0  0  0  0  0  0
   -4.5777   -0.4162   -0.0000 C   0  0  0  0  0  0  0  0  0  0  0  0
   -5.0695   -3.1527   -0.0000 C   0  0  0  0  0  0  0  0  0  0  0  0
    2.1690   -4.9055   -0.0000 O   0  0  0  0  0  0  0  0  0  0  0  0
    5.8009    0.5675   -0.0000 C   0  0  0  0  0  0  0  0  0  0  0  0
    7.1880   -1.8411   -0.0000 C   0  0  0  0  0  0  0  0  0  0  0  0
   -5.0190    0.8071   -0.0000 F   0  0  0  0  0  0  0  0  0  0  0  0
   -5.6243   -1.6268   -0.0000 C   0  0  0  0  0  0  0  0  0  0  0  0
    7.1754    1.3872   -0.0000 C   0  0  0  0  0  0  0  0  0  0  0  0
    8.2852   -1.1854   -0.0000 F   0  0  0  0  0  0  0  0  0  0  0  0
    7.1754   -3.1148   -0.0000 F   0  0  0  0  0  0  0  0  0  0  0  0
    8.2852   -2.4717   -0.0000 F   0  0  0  0  0  0  0  0  0  0  0  0
   -7.2133   -1.3367   -0.0000 C   0  0  0  0  0  0  0  0  0  0  0  0
    8.2726    2.0429   -0.0000 N   0  0  0  0  0  0  0  0  0  0  0  0
   -7.6673   -0.1135   -0.0000 O   0  0  0  0  0  0  0  0  0  0  0  0
   -8.2600   -2.5473   -0.0000 N   0  0  0  0  0  0  0  0  0  0  0  0
   -9.5336   -2.3077   -0.0000 C   0  0  0  0  0  0  0  0  0  0  0  0
  1  2  2  0  0  0  0
  2  3  1  0  0  0  0
  2  4  1  0  0  0  0
  3  5  1  0  0  0  0
  3  6  1  0  0  0  0
  4  7  1  0  0  0  0
  4  8  1  0  0  0  0
  5  9  2  0  0  0  0
  5 10  1  0  0  0  0
  6 11  2  0  0  0  0
  7 12  2  0  0  0  0
  7 13  1  0  0  0  0
  8 14  1  0  0  0  0
  8 15  1  0  0  0  0
  9 16  1  0  0  0  0
 10 17  2  0  0  0  0
 12 18  1  0  0  0  0
 13 19  2  0  0  0  0
 14 20  1  0  0  0  0
 16 21  2  0  0  0  0
 16 22  1  0  0  0  0
 18 23  1  0  0  0  0
 18 24  2  0  0  0  0
 21 25  1  0  0  0  0
 22 26  1  0  0  0  0
 22 27  1  0  0  0  0
 22 28  1  0  0  0  0
 24 29  1  0  0  0  0
 25 30  3  0  0  0  0
 29 31  2  0  0  0  0
 29 32  1  0  0  0  0
 32 33  1  0  0  0  0
  6  8  1  0  0  0  0
 17 21  1  0  0  0  0
 19 24  1  0  0  0  0
M  END
>  <MolRegNo>
1950110

>  <m>
=

>  <Value>
43.3

>  <Unit>
nM

>  <Type>
Ki

>  <pValue>
7.36

>  <Ligand Efficiency>
0.3

>  <Binding Efficiency>
15.33

>  <Surface Efficiency>
7.62

>  <Assay Index>
948398

>  <Assay Category>


>  <Assay Organism>
Homo sapiens

>  <Target ID>
56

>  <Target Name>
Androgen Receptor

>  <Target Organism>
Homo sapiens

>  <Target Description>
Target is a single protein chain

>  <Sequence Accession>
P10275

>  <Reference>


>  <Pubmed ID>
26046313

>  <DOI>
10.1016/j.ejmech.2015.05.039

$$$$
1950104
Actelion Java MolfileCreator 1.0

 31 33  0  0  0  0  0  0  0  0999 V2000
    0.0000   -0.0000   -0.0000 S   0  0  0  0  0  0  0  0  0  0  0  0
    0.2515   -1.2324   -0.0000 C   0  0  0  0  0  0  0  0  0  0  0  0
    1.6851   -1.8737   -0.0000 N   0  0  0  0  0  0  0  0  0  0  0  0
   -0.8300   -2.4145   -0.0000 N   0  0  0  0  0  0  0  0  0  0  0  0
    3.0558   -1.0563   -0.0000 C   0  0  0  0  0  0  0  0  0  0  0  0
    1.5342   -3.4331   -0.0000 C   0  0  0  0  0  0  0  0  0  0  0  0
   -2.4270   -2.2384   -0.0000 C   0  0  0  0  0  0  0  0  0  0  0  0
   -0.0377   -3.7852   -0.0000 C   0  0  0  0  0  0  0  0  0  0  0  0
    4.4265   -1.8486   -0.0000 C   0  0  0  0  0  0  0  0  0  0  0  0
    3.0432    0.5533   -0.0000 C   0  0  0  0  0  0  0  0  0  0  0  0
    2.4773   -4.2631   -0.0000 O   0  0  0  0  0  0  0  0  0  0  0  0
   -2.9804   -0.7168   -0.0000 C   0  0  0  0  0  0  0  0  0  0  0  0
   -3.4708   -3.4457   -0.0000 C   0  0  0  0  0  0  0  0  0  0  0  0
   -0.5659   -4.9421   -0.0000 C   0  0  0  0  0  0  0  0  0  0  0  0
    5.7972   -1.0438   -0.0000 C   0  0  0  0  0  0  0  0  0  0  0  0
    4.4140    1.3581   -0.0000 C   0  0  0  0  0  0  0  0  0  0  0  0
   -4.5649   -0.4150   -0.0000 C   0  0  0  0  0  0  0  0  0  0  0  0
   -5.0553   -3.1438   -0.0000 C   0  0  0  0  0  0  0  0  0  0  0  0
    5.7847    0.5659   -0.0000 C   0  0  0  0  0  0  0  0  0  0  0  0
    7.1680   -1.8360   -0.0000 C   0  0  0  0  0  0  0  0  0  0  0  0
   -5.0050    0.8048   -0.0000 F   0  0  0  0  0  0  0  0  0  0  0  0
   -5.6086   -1.6222   -0.0000 C   0  0  0  0  0  0  0  0  0  0  0  0
    7.1554    1.3833   -0.0000 C   0  0  0  0  0  0  0  0  0  0  0  0
    8.2620   -1.1821   -0.0000 F   0  0  0  0  0  0  0  0  0  0  0  0
    7.1554   -3.1061   -0.0000 F   0  0  0  0  0  0  0  0  0  0  0  0
    8.2620   -2.4648   -0.0000 F   0  0  0  0  0  0  0  0  0  0  0  0
   -7.1931   -1.3330   -0.0000 C   0  0  0  0  0  0  0  0  0  0  0  0
    8.2494    2.0372   -0.0000 N   0  0  0  0  0  0  0  0  0  0  0  0
   -7.6458   -0.1132   -0.0000 O   0  0  0  0  0  0  0  0  0  0  0  0
   -8.2369   -2.5402   -0.0000 N   0  0  0  0  0  0  0  0  0  0  0  0
   -9.5070   -2.3013   -0.0000 C   0  0  0  0  0  0  0  0  0  0  0  0
  1  2  2  0  0  0  0
  2  3  1  0  0  0  0
  2  4  1  0  0  0  0
  3  5  1  0  0  0  0
  3  6  1  0  0  0  0
  4  7  1  0  0  0  0
  4  8  1  0  0  0  0
  5  9  2  0  0  0  0
  5 10  1  0  0  0  0
  6 11  2  0  0  0  0
  7 12  2  0  0  0  0
  7 13  1  0  0  0  0
  8 14  1  6  0  0  0
  9 15  1  0  0  0  0
 10 16  2  0  0  0  0
 12 17  1  0  0  0  0
 13 18  2  0  0  0  0
 15 19  2  0  0  0  0
 15 20  1  0  0  0  0
 17 21  1  0  0  0  0
 17 22  2  0  0  0  0
 19 23  1  0  0  0  0
 20 24  1  0  0  0  0
 20 25  1  0  0  0  0
 20 26  1  0  0  0  0
 22 27  1  0  0  0  0
 23 28  3  0  0  0  0
 27 29  2  0  0  0  0
 27 30  1  0  0  0  0
 30 31  1  0  0  0  0
  6  8  1  0  0  0  0
 16 19  1  0  0  0  0
 18 22  1  0  0  0  0
M  END
>  <MolRegNo>
1950104

>  <m>
=

>  <Value>
95.3

>  <Unit>
nM

>  <Type>
Ki

>  <pValue>
7.02

>  <Ligand Efficiency>
0.31

>  <Binding Efficiency>
15.59

>  <Surface Efficiency>
9.18

>  <Assay Index>
948398

>  <Assay Category>


>  <Assay Organism>
Homo sapiens

>  <Target ID>
56

>  <Target Name>
Androgen Receptor

>  <Target Organism>
Homo sapiens

>  <Target Description>
Target is a single protein chain

>  <Sequence Accession>
P10275

>  <Reference>


>  <Pubmed ID>
26046313

>  <DOI>
10.1016/j.ejmech.2015.05.039

$$$$
1950539
Actelion Java MolfileCreator 1.0

 31 33  0  0  0  0  0  0  0  0999 V2000
    0.0000   -0.0000   -0.0000 S   0  0  0  0  0  0  0  0  0  0  0  0
    0.2515   -1.2324   -0.0000 C   0  0  0  0  0  0  0  0  0  0  0  0
    1.6851   -1.8737   -0.0000 N   0  0  0  0  0  0  0  0  0  0  0  0
   -0.8300   -2.4145   -0.0000 N   0  0  0  0  0  0  0  0  0  0  0  0
    3.0558   -1.0563   -0.0000 C   0  0  0  0  0  0  0  0  0  0  0  0
    1.5342   -3.4331   -0.0000 C   0  0  0  0  0  0  0  0  0  0  0  0
   -2.4270   -2.2384   -0.0000 C   0  0  0  0  0  0  0  0  0  0  0  0
   -0.0377   -3.7852   -0.0000 C   0  0  0  0  0  0  0  0  0  0  0  0
    4.4265   -1.8486   -0.0000 C   0  0  0  0  0  0  0  0  0  0  0  0
    3.0432    0.5533   -0.0000 C   0  0  0  0  0  0  0  0  0  0  0  0
    2.4773   -4.2631   -0.0000 O   0  0  0  0  0  0  0  0  0  0  0  0
   -2.9804   -0.7168   -0.0000 C   0  0  0  0  0  0  0  0  0  0  0  0
   -3.4708   -3.4457   -0.0000 C   0  0  0  0  0  0  0  0  0  0  0  0
   -0.5659   -4.9421   -0.0000 C   0  0  0  0  0  0  0  0  0  0  0  0
    5.7972   -1.0438   -0.0000 C   0  0  0  0  0  0  0  0  0  0  0  0
    4.4140    1.3581   -0.0000 C   0  0  0  0  0  0  0  0  0  0  0  0
   -4.5649   -0.4150   -0.0000 C   0  0  0  0  0  0  0  0  0  0  0  0
   -5.0553   -3.1438   -0.0000 C   0  0  0  0  0  0  0  0  0  0  0  0
    5.7847    0.5659   -0.0000 C   0  0  0  0  0  0  0  0  0  0  0  0
    7.1680   -1.8360   -0.0000 C   0  0  0  0  0  0  0  0  0  0  0  0
   -5.0050    0.8048   -0.0000 F   0  0  0  0  0  0  0  0  0  0  0  0
   -5.6086   -1.6222   -0.0000 C   0  0  0  0  0  0  0  0  0  0  0  0
    7.1554    1.3833   -0.0000 C   0  0  0  0  0  0  0  0  0  0  0  0
    8.2620   -1.1821   -0.0000 F   0  0  0  0  0  0  0  0  0  0  0  0
    7.1554   -3.1061   -0.0000 F   0  0  0  0  0  0  0  0  0  0  0  0
    8.2620   -2.4648   -0.0000 F   0  0  0  0  0  0  0  0  0  0  0  0
   -7.1931   -1.3330   -0.0000 C   0  0  0  0  0  0  0  0  0  0  0  0
    8.2494    2.0372   -0.0000 N   0  0  0  0  0  0  0  0  0  0  0  0
   -7.6458   -0.1132   -0.0000 O   0  0  0  0  0  0  0  0  0  0  0  0
   -8.2369   -2.5402   -0.0000 N   0  0  0  0  0  0  0  0  0  0  0  0
   -9.5070   -2.3013   -0.0000 C   0  0  0  0  0  0  0  0  0  0  0  0
  1  2  2  0  0  0  0
  2  3  1  0  0  0  0
  2  4  1  0  0  0  0
  3  5  1  0  0  0  0
  3  6  1  0  0  0  0
  4  7  1  0  0  0  0
  4  8  1  0  0  0  0
  5  9  2  0  0  0  0
  5 10  1  0  0  0  0
  6 11  2  0  0  0  0
  7 12  2  0  0  0  0
  7 13  1  0  0  0  0
  8 14  1  0  0  0  0
  9 15  1  0  0  0  0
 10 16  2  0  0  0  0
 12 17  1  0  0  0  0
 13 18  2  0  0  0  0
 15 19  2  0  0  0  0
 15 20  1  0  0  0  0
 17 21  1  0  0  0  0
 17 22  2  0  0  0  0
 19 23  1  0  0  0  0
 20 24  1  0  0  0  0
 20 25  1  0  0  0  0
 20 26  1  0  0  0  0
 22 27  1  0  0  0  0
 23 28  3  0  0  0  0
 27 29  2  0  0  0  0
 27 30  1  0  0  0  0
 30 31  1  0  0  0  0
  6  8  1  0  0  0  0
 16 19  1  0  0  0  0
 18 22  1  0  0  0  0
M  END
>  <MolRegNo>
1950539

>  <m>
=

>  <Value>
257

>  <Unit>
nM

>  <Type>
Ki

>  <pValue>
6.59

>  <Ligand Efficiency>
0.29

>  <Binding Efficiency>
14.63

>  <Surface Efficiency>
8.62

>  <Assay Index>
948398

>  <Assay Category>


>  <Assay Organism>
Homo sapiens

>  <Target ID>
56

>  <Target Name>
Androgen Receptor

>  <Target Organism>
Homo sapiens

>  <Target Description>
Target is a single protein chain

>  <Sequence Accession>
P10275

>  <Reference>


>  <Pubmed ID>
26046313

>  <DOI>
10.1016/j.ejmech.2015.05.039

$$$$
1950113
Actelion Java MolfileCreator 1.0

 31 33  0  0  0  0  0  0  0  0999 V2000
    0.0000   -0.0000   -0.0000 S   0  0  0  0  0  0  0  0  0  0  0  0
   -0.0125   -1.2624   -0.0000 C   0  0  0  0  0  0  0  0  0  0  0  0
    1.3499   -2.0373   -0.0000 N   0  0  0  0  0  0  0  0  0  0  0  0
   -1.3999   -2.0498   -0.0000 N   0  0  0  0  0  0  0  0  0  0  0  0
    2.7123   -1.2374   -0.0000 C   0  0  0  0  0  0  0  0  0  0  0  0
    1.3374   -3.6122   -0.0000 C   0  0  0  0  0  0  0  0  0  0  0  0
   -2.7873   -1.2499   -0.0000 C   0  0  0  0  0  0  0  0  0  0  0  0
   -1.4124   -3.6247   -0.0000 C   0  0  0  0  0  0  0  0  0  0  0  0
    4.0747   -2.0123   -0.0000 C   0  0  0  0  0  0  0  0  0  0  0  0
    2.6998    0.3625   -0.0000 C   0  0  0  0  0  0  0  0  0  0  0  0
    2.4248   -4.2372   -0.0000 O   0  0  0  0  0  0  0  0  0  0  0  0
   -0.0500   -4.3996   -0.0000 C   0  0  0  0  0  0  0  0  0  0  0  0
   -4.1747   -2.0373   -0.0000 C   0  0  0  0  0  0  0  0  0  0  0  0
   -2.7998    0.3500   -0.0000 C   0  0  0  0  0  0  0  0  0  0  0  0
    5.4371   -1.2124   -0.0000 C   0  0  0  0  0  0  0  0  0  0  0  0
    4.0622    1.1624   -0.0000 C   0  0  0  0  0  0  0  0  0  0  0  0
   -5.5620   -1.2374   -0.0000 C   0  0  0  0  0  0  0  0  0  0  0  0
   -4.1872    1.1499   -0.0000 C   0  0  0  0  0  0  0  0  0  0  0  0
    5.4246    0.3875   -0.0000 C   0  0  0  0  0  0  0  0  0  0  0  0
    6.7994   -1.9873   -0.0000 C   0  0  0  0  0  0  0  0  0  0  0  0
   -6.6745   -1.8623   -0.0000 F   0  0  0  0  0  0  0  0  0  0  0  0
   -5.5745    0.3625   -0.0000 C   0  0  0  0  0  0  0  0  0  0  0  0
    6.7869    1.1874   -0.0000 C   0  0  0  0  0  0  0  0  0  0  0  0
    7.8869   -1.3374   -0.0000 F   0  0  0  0  0  0  0  0  0  0  0  0
    6.7869   -3.2497   -0.0000 F   0  0  0  0  0  0  0  0  0  0  0  0
    7.8869   -2.6123   -0.0000 F   0  0  0  0  0  0  0  0  0  0  0  0
   -6.9619    1.1624   -0.0000 C   0  0  0  0  0  0  0  0  0  0  0  0
    7.8744    1.8373   -0.0000 N   0  0  0  0  0  0  0  0  0  0  0  0
   -8.0743    0.5375   -0.0000 O   0  0  0  0  0  0  0  0  0  0  0  0
   -6.9744    2.7623   -0.0000 N   0  0  0  0  0  0  0  0  0  0  0  0
   -8.0868    3.4122   -0.0000 C   0  0  0  0  0  0  0  0  0  0  0  0
  1  2  2  0  0  0  0
  2  3  1  0  0  0  0
  2  4  1  0  0  0  0
  3  5  1  0  0  0  0
  3  6  1  0  0  0  0
  4  7  1  0  0  0  0
  4  8  1  0  0  0  0
  5  9  2  0  0  0  0
  5 10  1  0  0  0  0
  6 11  2  0  0  0  0
  6 12  1  0  0  0  0
  7 13  2  0  0  0  0
  7 14  1  0  0  0  0
  9 15  1  0  0  0  0
 10 16  2  0  0  0  0
 13 17  1  0  0  0  0
 14 18  2  0  0  0  0
 15 19  2  0  0  0  0
 15 20  1  0  0  0  0
 17 21  1  0  0  0  0
 17 22  2  0  0  0  0
 19 23  1  0  0  0  0
 20 24  1  0  0  0  0
 20 25  1  0  0  0  0
 20 26  1  0  0  0  0
 22 27  1  0  0  0  0
 23 28  3  0  0  0  0
 27 29  2  0  0  0  0
 27 30  1  0  0  0  0
 30 31  1  0  0  0  0
  8 12  1  0  0  0  0
 16 19  1  0  0  0  0
 18 22  1  0  0  0  0
M  END
>  <MolRegNo>
1950113

>  <m>
=

>  <Value>
575.6

>  <Unit>
nM

>  <Type>
Ki

>  <pValue>
6.24

>  <Ligand Efficiency>
0.27

>  <Binding Efficiency>
13.85

>  <Surface Efficiency>
8.16

>  <Assay Index>
948397

>  <Assay Category>


>  <Assay Organism>
Homo sapiens

>  <Target ID>
56

>  <Target Name>
Androgen Receptor

>  <Target Organism>
Homo sapiens

>  <Target Description>
Target is a single protein chain

>  <Sequence Accession>
P10275

>  <Reference>


>  <Pubmed ID>
26046313

>  <DOI>
10.1016/j.ejmech.2015.05.039

$$$$
1950112
Actelion Java MolfileCreator 1.0

 36 38  0  0  0  0  0  0  0  0999 V2000
    0.0000   -0.0000   -0.0000 S   0  0  0  0  0  0  0  0  0  0  0  0
    0.2510   -1.2300   -0.0000 C   0  0  0  0  0  0  0  0  0  0  0  0
    1.6819   -1.8702   -0.0000 N   0  0  0  0  0  0  0  0  0  0  0  0
   -0.8284   -2.4099   -0.0000 N   0  0  0  0  0  0  0  0  0  0  0  0
    3.0500   -1.0543   -0.0000 C   0  0  0  0  0  0  0  0  0  0  0  0
    1.5313   -3.4266   -0.0000 C   0  0  0  0  0  0  0  0  0  0  0  0
   -2.4224   -2.2342   -0.0000 C   0  0  0  0  0  0  0  0  0  0  0  0
   -0.0377   -3.7780   -0.0000 C   0  0  0  0  0  0  0  0  0  0  0  0
    4.4181   -1.8451   -0.0000 C   0  0  0  0  0  0  0  0  0  0  0  0
    3.0375    0.5523   -0.0000 C   0  0  0  0  0  0  0  0  0  0  0  0
    2.4726   -4.2549   -0.0000 O   0  0  0  0  0  0  0  0  0  0  0  0
   -2.9747   -0.7154   -0.0000 C   0  0  0  0  0  0  0  0  0  0  0  0
   -3.4642   -3.4391   -0.0000 C   0  0  0  0  0  0  0  0  0  0  0  0
   -1.6191   -3.9035   -0.0000 C   0  0  0  0  0  0  0  0  0  0  0  0
    0.9037   -5.0331   -0.0000 C   0  0  0  0  0  0  0  0  0  0  0  0
    5.7862   -1.0418   -0.0000 C   0  0  0  0  0  0  0  0  0  0  0  0
    4.4056    1.3556   -0.0000 C   0  0  0  0  0  0  0  0  0  0  0  0
   -4.5562   -0.4142   -0.0000 C   0  0  0  0  0  0  0  0  0  0  0  0
   -5.0457   -3.1379   -0.0000 C   0  0  0  0  0  0  0  0  0  0  0  0
   -2.3220   -5.3218   -0.0000 O   0  0  0  0  0  0  0  0  0  0  0  0
    0.2510   -6.4766   -0.0000 O   0  0  0  0  0  0  0  0  0  0  0  0
    5.7737    0.5648   -0.0000 C   0  0  0  0  0  0  0  0  0  0  0  0
    7.1543   -1.8325   -0.0000 C   0  0  0  0  0  0  0  0  0  0  0  0
   -4.9955    0.8033   -0.0000 F   0  0  0  0  0  0  0  0  0  0  0  0
   -5.5980   -1.6191   -0.0000 C   0  0  0  0  0  0  0  0  0  0  0  0
   -3.6023   -5.4097   -0.0000 C   0  0  0  0  0  0  0  0  0  0  0  0
    0.9916   -7.4932   -0.0000 C   0  0  0  0  0  0  0  0  0  0  0  0
    7.1418    1.3807   -0.0000 C   0  0  0  0  0  0  0  0  0  0  0  0
    8.2463   -1.1798   -0.0000 F   0  0  0  0  0  0  0  0  0  0  0  0
    7.1418   -3.1002   -0.0000 F   0  0  0  0  0  0  0  0  0  0  0  0
    8.2463   -2.4601   -0.0000 F   0  0  0  0  0  0  0  0  0  0  0  0
   -7.1794   -1.3305   -0.0000 C   0  0  0  0  0  0  0  0  0  0  0  0
    8.2338    2.0333   -0.0000 N   0  0  0  0  0  0  0  0  0  0  0  0
   -7.6313   -0.1130   -0.0000 O   0  0  0  0  0  0  0  0  0  0  0  0
   -8.2212   -2.5354   -0.0000 N   0  0  0  0  0  0  0  0  0  0  0  0
   -9.4889   -2.2969   -0.0000 C   0  0  0  0  0  0  0  0  0  0  0  0
  1  2  2  0  0  0  0
  2  3  1  0  0  0  0
  2  4  1  0  0  0  0
  3  5  1  0  0  0  0
  3  6  1  0  0  0  0
  4  7  1  0  0  0  0
  4  8  1  0  0  0  0
  5  9  2  0  0  0  0
  5 10  1  0  0  0  0
  6 11  2  0  0  0  0
  7 12  2  0  0  0  0
  7 13  1  0  0  0  0
  8 14  1  0  0  0  0
  8 15  1  0  0  0  0
  9 16  1  0  0  0  0
 10 17  2  0  0  0  0
 12 18  1  0  0  0  0
 13 19  2  0  0  0  0
 14 20  1  0  0  0  0
 15 21  1  0  0  0  0
 16 22  2  0  0  0  0
 16 23  1  0  0  0  0
 18 24  1  0  0  0  0
 18 25  2  0  0  0  0
 20 26  1  0  0  0  0
 21 27  1  0  0  0  0
 22 28  1  0  0  0  0
 23 29  1  0  0  0  0
 23 30  1  0  0  0  0
 23 31  1  0  0  0  0
 25 32  1  0  0  0  0
 28 33  3  0  0  0  0
 32 34  2  0  0  0  0
 32 35  1  0  0  0  0
 35 36  1  0  0  0  0
  6  8  1  0  0  0  0
 17 22  1  0  0  0  0
 19 25  1  0  0  0  0
M  END
>  <MolRegNo>
1950112

>  <m>
=

>  <Value>
584.6

>  <Unit>
nM

>  <Type>
Ki

>  <pValue>
6.23

>  <Ligand Efficiency>
0.24

>  <Binding Efficiency>
11.88

>  <Surface Efficiency>
6.57

>  <Assay Index>
948397

>  <Assay Category>


>  <Assay Organism>
Homo sapiens

>  <Target ID>
56

>  <Target Name>
Androgen Receptor

>  <Target Organism>
Homo sapiens

>  <Target Description>
Target is a single protein chain

>  <Sequence Accession>
P10275

>  <Reference>


>  <Pubmed ID>
26046313

>  <DOI>
10.1016/j.ejmech.2015.05.039

$$$$
1950109
Actelion Java MolfileCreator 1.0

 37 39  0  0  0  0  0  0  0  0999 V2000
    0.0000   -0.0000   -0.0000 S   0  0  0  0  0  0  0  0  0  0  0  0
    0.2519   -1.2344   -0.0000 C   0  0  0  0  0  0  0  0  0  0  0  0
    1.6879   -1.8769   -0.0000 N   0  0  0  0  0  0  0  0  0  0  0  0
   -0.8314   -2.4185   -0.0000 N   0  0  0  0  0  0  0  0  0  0  0  0
    3.0609   -1.0581   -0.0000 C   0  0  0  0  0  0  0  0  0  0  0  0
    1.5368   -3.4388   -0.0000 C   0  0  0  0  0  0  0  0  0  0  0  0
   -2.4311   -2.2422   -0.0000 C   0  0  0  0  0  0  0  0  0  0  0  0
   -0.0378   -3.7915   -0.0000 C   0  0  0  0  0  0  0  0  0  0  0  0
    4.4339   -1.8517   -0.0000 C   0  0  0  0  0  0  0  0  0  0  0  0
    3.0483    0.5542   -0.0000 C   0  0  0  0  0  0  0  0  0  0  0  0
    2.4815   -4.2702   -0.0000 O   0  0  0  0  0  0  0  0  0  0  0  0
   -2.9853   -0.7180   -0.0000 C   0  0  0  0  0  0  0  0  0  0  0  0
   -3.4766   -3.4514   -0.0000 C   0  0  0  0  0  0  0  0  0  0  0  0
    0.9069   -5.0512   -0.0000 C   0  0  0  0  0  0  0  0  0  0  0  0
   -1.3226   -3.8923   -0.0000 C   0  0  0  0  0  0  0  0  0  0  0  0
    5.8069   -1.0455   -0.0000 C   0  0  0  0  0  0  0  0  0  0  0  0
    4.4213    1.3604   -0.0000 C   0  0  0  0  0  0  0  0  0  0  0  0
   -4.5725   -0.4157   -0.0000 C   0  0  0  0  0  0  0  0  0  0  0  0
   -5.0637   -3.1491   -0.0000 C   0  0  0  0  0  0  0  0  0  0  0  0
    0.2897   -6.5249   -0.0000 C   0  0  0  0  0  0  0  0  0  0  0  0
    5.7943    0.5668   -0.0000 C   0  0  0  0  0  0  0  0  0  0  0  0
    7.1799   -1.8391   -0.0000 C   0  0  0  0  0  0  0  0  0  0  0  0
   -5.0134    0.8062   -0.0000 F   0  0  0  0  0  0  0  0  0  0  0  0
   -5.6180   -1.6249   -0.0000 C   0  0  0  0  0  0  0  0  0  0  0  0
   -0.9951   -6.6887   -0.0000 O   0  0  0  0  0  0  0  0  0  0  0  0
    1.2596   -7.7720   -0.0000 O   0  0  0  0  0  0  0  0  0  0  0  0
    7.1673    1.3856   -0.0000 C   0  0  0  0  0  0  0  0  0  0  0  0
    8.2758   -1.1841   -0.0000 F   0  0  0  0  0  0  0  0  0  0  0  0
    7.1673   -3.1113   -0.0000 F   0  0  0  0  0  0  0  0  0  0  0  0
    8.2758   -2.4689   -0.0000 F   0  0  0  0  0  0  0  0  0  0  0  0
   -7.2051   -1.3352   -0.0000 C   0  0  0  0  0  0  0  0  0  0  0  0
    0.6424   -9.2457   -0.0000 C   0  0  0  0  0  0  0  0  0  0  0  0
    8.2632    2.0406   -0.0000 N   0  0  0  0  0  0  0  0  0  0  0  0
   -7.6586   -0.1134   -0.0000 O   0  0  0  0  0  0  0  0  0  0  0  0
   -8.2506   -2.5445   -0.0000 N   0  0  0  0  0  0  0  0  0  0  0  0
    1.4108  -10.2409   -0.0000 C   0  0  0  0  0  0  0  0  0  0  0  0
   -9.5229   -2.3051   -0.0000 C   0  0  0  0  0  0  0  0  0  0  0  0
  1  2  2  0  0  0  0
  2  3  1  0  0  0  0
  2  4  1  0  0  0  0
  3  5  1  0  0  0  0
  3  6  1  0  0  0  0
  4  7  1  0  0  0  0
  4  8  1  0  0  0  0
  5  9  2  0  0  0  0
  5 10  1  0  0  0  0
  6 11  2  0  0  0  0
  7 12  2  0  0  0  0
  7 13  1  0  0  0  0
  8 14  1  0  0  0  0
  8 15  1  0  0  0  0
  9 16  1  0  0  0  0
 10 17  2  0  0  0  0
 12 18  1  0  0  0  0
 13 19  2  0  0  0  0
 14 20  1  0  0  0  0
 16 21  2  0  0  0  0
 16 22  1  0  0  0  0
 18 23  1  0  0  0  0
 18 24  2  0  0  0  0
 20 25  2  0  0  0  0
 20 26  1  0  0  0  0
 21 27  1  0  0  0  0
 22 28  1  0  0  0  0
 22 29  1  0  0  0  0
 22 30  1  0  0  0  0
 24 31  1  0  0  0  0
 26 32  1  0  0  0  0
 27 33  3  0  0  0  0
 31 34  2  0  0  0  0
 31 35  1  0  0  0  0
 32 36  1  0  0  0  0
 35 37  1  0  0  0  0
  6  8  1  0  0  0  0
 17 21  1  0  0  0  0
 19 24  1  0  0  0  0
M  END
>  <MolRegNo>
1950109

>  <m>
=

>  <Value>
235.9

>  <Unit>
nM

>  <Type>
Ki

>  <pValue>
6.63

>  <Ligand Efficiency>
0.24

>  <Binding Efficiency>
12.35

>  <Surface Efficiency>
6.45

>  <Assay Index>
948397

>  <Assay Category>


>  <Assay Organism>
Homo sapiens

>  <Target ID>
56

>  <Target Name>
Androgen Receptor

>  <Target Organism>
Homo sapiens

>  <Target Description>
Target is a single protein chain

>  <Sequence Accession>
P10275

>  <Reference>


>  <Pubmed ID>
26046313

>  <DOI>
10.1016/j.ejmech.2015.05.039

$$$$
1950108
Actelion Java MolfileCreator 1.0

 40 43  0  0  0  0  0  0  0  0999 V2000
    0.0000   -0.0000   -0.0000 S   0  0  0  0  0  0  0  0  0  0  0  0
    0.2482   -1.2160   -0.0000 C   0  0  0  0  0  0  0  0  0  0  0  0
    1.6627   -1.8488   -0.0000 N   0  0  0  0  0  0  0  0  0  0  0  0
   -0.8189   -2.3823   -0.0000 N   0  0  0  0  0  0  0  0  0  0  0  0
    3.0151   -1.0423   -0.0000 C   0  0  0  0  0  0  0  0  0  0  0  0
    1.5138   -3.3873   -0.0000 C   0  0  0  0  0  0  0  0  0  0  0  0
   -2.3947   -2.2086   -0.0000 C   0  0  0  0  0  0  0  0  0  0  0  0
   -0.0372   -3.7348   -0.0000 C   0  0  0  0  0  0  0  0  0  0  0  0
    4.3676   -1.8240   -0.0000 C   0  0  0  0  0  0  0  0  0  0  0  0
    3.0027    0.5459   -0.0000 C   0  0  0  0  0  0  0  0  0  0  0  0
    2.4443   -4.2063   -0.0000 O   0  0  0  0  0  0  0  0  0  0  0  0
   -2.9407   -0.7072   -0.0000 C   0  0  0  0  0  0  0  0  0  0  0  0
   -3.4246   -3.3998   -0.0000 C   0  0  0  0  0  0  0  0  0  0  0  0
    0.8934   -4.9756   -0.0000 C   0  0  0  0  0  0  0  0  0  0  0  0
   -1.3028   -3.8340   -0.0000 C   0  0  0  0  0  0  0  0  0  0  0  0
    5.7200   -1.0299   -0.0000 C   0  0  0  0  0  0  0  0  0  0  0  0
    4.3552    1.3400   -0.0000 C   0  0  0  0  0  0  0  0  0  0  0  0
   -4.5041   -0.4095   -0.0000 C   0  0  0  0  0  0  0  0  0  0  0  0
   -4.9880   -3.1020   -0.0000 C   0  0  0  0  0  0  0  0  0  0  0  0
    2.4443   -4.8018   -0.0000 O   0  0  0  0  0  0  0  0  0  0  0  0
    5.7076    0.5584   -0.0000 C   0  0  0  0  0  0  0  0  0  0  0  0
    7.0725   -1.8115   -0.0000 C   0  0  0  0  0  0  0  0  0  0  0  0
   -4.9383    0.7941   -0.0000 F   0  0  0  0  0  0  0  0  0  0  0  0
   -5.5339   -1.6006   -0.0000 C   0  0  0  0  0  0  0  0  0  0  0  0
    3.3625   -6.0674   -0.0000 C   0  0  0  0  0  0  0  0  0  0  0  0
    7.0601    1.3649   -0.0000 C   0  0  0  0  0  0  0  0  0  0  0  0
    8.1520   -1.1663   -0.0000 F   0  0  0  0  0  0  0  0  0  0  0  0
    7.0601   -3.0647   -0.0000 F   0  0  0  0  0  0  0  0  0  0  0  0
    8.1520   -2.4319   -0.0000 F   0  0  0  0  0  0  0  0  0  0  0  0
   -7.0973   -1.3152   -0.0000 C   0  0  0  0  0  0  0  0  0  0  0  0
    4.9135   -5.8937   -0.0000 C   0  0  0  0  0  0  0  0  0  0  0  0
    8.1396    2.0101   -0.0000 N   0  0  0  0  0  0  0  0  0  0  0  0
   -7.5440   -0.1117   -0.0000 O   0  0  0  0  0  0  0  0  0  0  0  0
   -8.1271   -2.5064   -0.0000 N   0  0  0  0  0  0  0  0  0  0  0  0
    5.8317   -7.1593   -0.0000 C   0  0  0  0  0  0  0  0  0  0  0  0
    5.5339   -4.4420   -0.0000 C   0  0  0  0  0  0  0  0  0  0  0  0
   -9.3803   -2.2706   -0.0000 C   0  0  0  0  0  0  0  0  0  0  0  0
    7.3827   -6.9732   -0.0000 C   0  0  0  0  0  0  0  0  0  0  0  0
    7.0849   -4.2559   -0.0000 C   0  0  0  0  0  0  0  0  0  0  0  0
    8.0031   -5.5215   -0.0000 C   0  0  0  0  0  0  0  0  0  0  0  0
  1  2  2  0  0  0  0
  2  3  1  0  0  0  0
  2  4  1  0  0  0  0
  3  5  1  0  0  0  0
  3  6  1  0  0  0  0
  4  7  1  0  0  0  0
  4  8  1  0  0  0  0
  5  9  2  0  0  0  0
  5 10  1  0  0  0  0
  6 11  2  0  0  0  0
  7 12  2  0  0  0  0
  7 13  1  0  0  0  0
  8 14  1  0  0  0  0
  8 15  1  0  0  0  0
  9 16  1  0  0  0  0
 10 17  2  0  0  0  0
 12 18  1  0  0  0  0
 13 19  2  0  0  0  0
 14 20  1  0  0  0  0
 16 21  2  0  0  0  0
 16 22  1  0  0  0  0
 18 23  1  0  0  0  0
 18 24  2  0  0  0  0
 20 25  1  0  0  0  0
 21 26  1  0  0  0  0
 22 27  1  0  0  0  0
 22 28  1  0  0  0  0
 22 29  1  0  0  0  0
 24 30  1  0  0  0  0
 25 31  1  0  0  0  0
 26 32  3  0  0  0  0
 30 33  2  0  0  0  0
 30 34  1  0  0  0  0
 31 35  2  0  0  0  0
 31 36  1  0  0  0  0
 34 37  1  0  0  0  0
 35 38  1  0  0  0  0
 36 39  2  0  0  0  0
 38 40  2  0  0  0  0
  6  8  1  0  0  0  0
 17 21  1  0  0  0  0
 19 24  1  0  0  0  0
 39 40  1  0  0  0  0
M  END
>  <MolRegNo>
1950108

>  <m>
=

>  <Value>
514.5

>  <Unit>
nM

>  <Type>
Ki

>  <pValue>
6.29

>  <Ligand Efficiency>
0.21

>  <Binding Efficiency>
11.02

>  <Surface Efficiency>
7.34

>  <Assay Index>
948397

>  <Assay Category>


>  <Assay Organism>
Homo sapiens

>  <Target ID>
56

>  <Target Name>
Androgen Receptor

>  <Target Organism>
Homo sapiens

>  <Target Description>
Target is a single protein chain

>  <Sequence Accession>
P10275

>  <Reference>


>  <Pubmed ID>
26046313

>  <DOI>
10.1016/j.ejmech.2015.05.039

$$$$
1950107
Actelion Java MolfileCreator 1.0

 34 36  0  0  0  0  0  0  0  0999 V2000
    0.0000   -0.0000   -0.0000 S   0  0  0  0  0  0  0  0  0  0  0  0
    0.2518   -1.2336   -0.0000 C   0  0  0  0  0  0  0  0  0  0  0  0
    1.6868   -1.8756   -0.0000 N   0  0  0  0  0  0  0  0  0  0  0  0
   -0.8308   -2.4169   -0.0000 N   0  0  0  0  0  0  0  0  0  0  0  0
    3.0588   -1.0574   -0.0000 C   0  0  0  0  0  0  0  0  0  0  0  0
    1.5357   -3.4365   -0.0000 C   0  0  0  0  0  0  0  0  0  0  0  0
   -2.4294   -2.2406   -0.0000 C   0  0  0  0  0  0  0  0  0  0  0  0
   -0.0378   -3.7889   -0.0000 C   0  0  0  0  0  0  0  0  0  0  0  0
    4.4309   -1.8504   -0.0000 C   0  0  0  0  0  0  0  0  0  0  0  0
    3.0462    0.5539   -0.0000 C   0  0  0  0  0  0  0  0  0  0  0  0
    2.4798   -4.2673   -0.0000 O   0  0  0  0  0  0  0  0  0  0  0  0
   -2.9833   -0.7175   -0.0000 C   0  0  0  0  0  0  0  0  0  0  0  0
   -3.4742   -3.4490   -0.0000 C   0  0  0  0  0  0  0  0  0  0  0  0
   -1.6238   -3.9148   -0.0000 C   0  0  0  0  0  0  0  0  0  0  0  0
    0.7175   -4.7959   -0.0000 C   0  0  0  0  0  0  0  0  0  0  0  0
    5.8030   -1.0448   -0.0000 C   0  0  0  0  0  0  0  0  0  0  0  0
    4.4183    1.3595   -0.0000 C   0  0  0  0  0  0  0  0  0  0  0  0
   -4.5694   -0.4154   -0.0000 C   0  0  0  0  0  0  0  0  0  0  0  0
   -5.0603   -3.1469   -0.0000 C   0  0  0  0  0  0  0  0  0  0  0  0
   -2.3287   -5.3372   -0.0000 O   0  0  0  0  0  0  0  0  0  0  0  0
    5.7904    0.5664   -0.0000 C   0  0  0  0  0  0  0  0  0  0  0  0
    7.1750   -1.8378   -0.0000 C   0  0  0  0  0  0  0  0  0  0  0  0
   -5.0099    0.8056   -0.0000 F   0  0  0  0  0  0  0  0  0  0  0  0
   -5.6141   -1.6238   -0.0000 C   0  0  0  0  0  0  0  0  0  0  0  0
   -3.6127   -5.4253   -0.0000 C   0  0  0  0  0  0  0  0  0  0  0  0
    7.1624    1.3847   -0.0000 C   0  0  0  0  0  0  0  0  0  0  0  0
    8.2702   -1.1832   -0.0000 F   0  0  0  0  0  0  0  0  0  0  0  0
    7.1624   -3.1092   -0.0000 F   0  0  0  0  0  0  0  0  0  0  0  0
    8.2702   -2.4672   -0.0000 F   0  0  0  0  0  0  0  0  0  0  0  0
   -7.2002   -1.3343   -0.0000 C   0  0  0  0  0  0  0  0  0  0  0  0
    8.2576    2.0392   -0.0000 N   0  0  0  0  0  0  0  0  0  0  0  0
   -7.6534   -0.1133   -0.0000 O   0  0  0  0  0  0  0  0  0  0  0  0
   -8.2450   -2.5427   -0.0000 N   0  0  0  0  0  0  0  0  0  0  0  0
   -9.5163   -2.3036   -0.0000 C   0  0  0  0  0  0  0  0  0  0  0  0
  1  2  2  0  0  0  0
  2  3  1  0  0  0  0
  2  4  1  0  0  0  0
  3  5  1  0  0  0  0
  3  6  1  0  0  0  0
  4  7  1  0  0  0  0
  4  8  1  0  0  0  0
  5  9  2  0  0  0  0
  5 10  1  0  0  0  0
  6 11  2  0  0  0  0
  7 12  2  0  0  0  0
  7 13  1  0  0  0  0
  8 14  1  0  0  0  0
  8 15  1  1  0  0  0
  9 16  1  0  0  0  0
 10 17  2  0  0  0  0
 12 18  1  0  0  0  0
 13 19  2  0  0  0  0
 14 20  1  0  0  0  0
 16 21  2  0  0  0  0
 16 22  1  0  0  0  0
 18 23  1  0  0  0  0
 18 24  2  0  0  0  0
 20 25  1  0  0  0  0
 21 26  1  0  0  0  0
 22 27  1  0  0  0  0
 22 28  1  0  0  0  0
 22 29  1  0  0  0  0
 24 30  1  0  0  0  0
 26 31  3  0  0  0  0
 30 32  2  0  0  0  0
 30 33  1  0  0  0  0
 33 34  1  0  0  0  0
  6  8  1  0  0  0  0
 17 21  1  0  0  0  0
 19 24  1  0  0  0  0
M  END
>  <MolRegNo>
1950107

>  <m>
=

>  <Value>
797.6

>  <Unit>
nM

>  <Type>
Ki

>  <pValue>
6.1

>  <Ligand Efficiency>
0.24

>  <Binding Efficiency>
12.33

>  <Surface Efficiency>
7.12

>  <Assay Index>
948397

>  <Assay Category>


>  <Assay Organism>
Homo sapiens

>  <Target ID>
56

>  <Target Name>
Androgen Receptor

>  <Target Organism>
Homo sapiens

>  <Target Description>
Target is a single protein chain

>  <Sequence Accession>
P10275

>  <Reference>


>  <Pubmed ID>
26046313

>  <DOI>
10.1016/j.ejmech.2015.05.039

$$$$
1958972
Actelion Java MolfileCreator 1.0

 36 39  0  0  0  0  0  0  0  0999 V2000
    0.0000   -0.0000   -0.0000 S   0  0  0  0  0  0  0  0  0  0  0  0
   -0.0123   -1.2432   -0.0000 O   0  0  0  0  0  0  0  0  0  0  0  0
   -1.0955   -0.6154   -0.0000 O   0  0  0  0  0  0  0  0  0  0  0  0
    1.3417    0.8001   -0.0000 N   0  0  0  0  0  0  0  0  0  0  0  0
   -1.0955    0.6278   -0.0000 C   0  0  0  0  0  0  0  0  0  0  0  0
    1.3294    2.3756   -0.0000 C   0  0  0  0  0  0  0  0  0  0  0  0
    2.6710    3.1880   -0.0000 C   0  0  0  0  0  0  0  0  0  0  0  0
   -0.0492    3.1880   -0.0000 C   0  0  0  0  0  0  0  0  0  0  0  0
    4.1358    2.7203   -0.0000 N   0  0  0  0  0  0  0  0  0  0  0  0
    2.6587    4.7636   -0.0000 C   0  0  0  0  0  0  0  0  0  0  0  0
   -0.0615    4.7636   -0.0000 C   0  0  0  0  0  0  0  0  0  0  0  0
    5.0344    4.0004   -0.0000 C   0  0  0  0  0  0  0  0  0  0  0  0
    4.1235    5.2559   -0.0000 C   0  0  0  0  0  0  0  0  0  0  0  0
    1.2924    5.5760   -0.0000 C   0  0  0  0  0  0  0  0  0  0  0  0
   -1.4278    5.5513   -0.0000 C   0  0  0  0  0  0  0  0  0  0  0  0
    6.5853    4.0250   -0.0000 C   0  0  0  0  0  0  0  0  0  0  0  0
    4.5912    6.7576   -0.0000 C   0  0  0  0  0  0  0  0  0  0  0  0
   -1.4525    6.8192   -0.0000 C   0  0  0  0  0  0  0  0  0  0  0  0
   -2.5233    4.9359   -0.0000 C   0  0  0  0  0  0  0  0  0  0  0  0
    7.3731    2.6957   -0.0000 N   0  0  0  0  0  0  0  0  0  0  0  0
    3.6188    8.0008   -0.0000 C   0  0  0  0  0  0  0  0  0  0  0  0
    6.1299    6.9915   -0.0000 C   0  0  0  0  0  0  0  0  0  0  0  0
    8.9240    2.7203   -0.0000 C   0  0  0  0  0  0  0  0  0  0  0  0
    6.7453    1.6248   -0.0000 C   0  0  0  0  0  0  0  0  0  0  0  0
    2.0556    7.7916   -0.0000 O   0  0  0  0  0  0  0  0  0  0  0  0
    4.1850    9.4656   -0.0000 C   0  0  0  0  0  0  0  0  0  0  0  0
    6.6961    8.4562   -0.0000 C   0  0  0  0  0  0  0  0  0  0  0  0
    9.7118    1.3909   -0.0000 C   0  0  0  0  0  0  0  0  0  0  0  0
    1.2678    8.7886   -0.0000 C   0  0  0  0  0  0  0  0  0  0  0  0
    5.7237    9.6994   -0.0000 C   0  0  0  0  0  0  0  0  0  0  0  0
   11.2627    1.4155   -0.0000 C   0  0  0  0  0  0  0  0  0  0  0  0
    8.9240    0.0492   -0.0000 C   0  0  0  0  0  0  0  0  0  0  0  0
    6.1791   10.8688   -0.0000 F   0  0  0  0  0  0  0  0  0  0  0  0
   12.0381    0.0862   -0.0000 C   0  0  0  0  0  0  0  0  0  0  0  0
    9.6994   -1.2801   -0.0000 C   0  0  0  0  0  0  0  0  0  0  0  0
   11.2504   -1.2555   -0.0000 C   0  0  0  0  0  0  0  0  0  0  0  0
  1  2  2  0  0  0  0
  1  3  2  0  0  0  0
  1  4  1  0  0  0  0
  1  5  1  0  0  0  0
  4  6  1  0  0  0  0
  6  7  2  0  0  0  0
  6  8  1  0  0  0  0
  7  9  1  0  0  0  0
  7 10  1  0  0  0  0
  8 11  2  0  0  0  0
  9 12  1  0  0  0  0
 10 13  1  0  0  0  0
 10 14  2  0  0  0  0
 11 15  1  0  0  0  0
 12 16  1  0  0  0  0
 13 17  1  0  0  0  0
 15 18  1  0  0  0  0
 15 19  1  0  0  0  0
 16 20  1  0  0  0  0
 17 21  2  0  0  0  0
 17 22  1  0  0  0  0
 20 23  1  0  0  0  0
 20 24  1  0  0  0  0
 21 25  1  0  0  0  0
 21 26  1  0  0  0  0
 22 27  2  0  0  0  0
 23 28  1  0  0  0  0
 25 29  1  0  0  0  0
 26 30  2  0  0  0  0
 28 31  2  0  0  0  0
 28 32  1  0  0  0  0
 30 33  1  0  0  0  0
 31 34  1  0  0  0  0
 32 35  2  0  0  0  0
 34 36  2  0  0  0  0
 11 14  1  0  0  0  0
 12 13  2  0  0  0  0
 27 30  1  0  0  0  0
 35 36  1  0  0  0  0
M  END
>  <MolRegNo>
1958972

>  <m>
=

>  <Value>
232

>  <Unit>
nM

>  <Type>
Ki

>  <pValue>
6.63

>  <Ligand Efficiency>
0.25

>  <Binding Efficiency>
13.02

>  <Surface Efficiency>
8.91

>  <Assay Index>
955714

>  <Assay Category>


>  <Assay Organism>
Homo sapiens

>  <Target ID>
56

>  <Target Name>
Androgen Receptor

>  <Target Organism>
Homo sapiens

>  <Target Description>
Target is a single protein chain

>  <Sequence Accession>
P10275

>  <Reference>
J Med Chem 58 (16), 6607-6618 (2015)

>  <Pubmed ID>
26218343

>  <DOI>
10.1021/acs.jmedchem.5b00736

$$$$
1958974
Actelion Java MolfileCreator 1.0

 30 33  0  0  0  0  0  0  0  0999 V2000
    0.0000   -0.0000   -0.0000 F   0  0  0  0  0  0  0  0  0  0  0  0
    1.0636   -0.6112   -0.0000 C   0  0  0  0  0  0  0  0  0  0  0  0
    1.0513   -2.1516   -0.0000 C   0  0  0  0  0  0  0  0  0  0  0  0
    2.4083    0.1956   -0.0000 C   0  0  0  0  0  0  0  0  0  0  0  0
    2.3961   -2.9340   -0.0000 C   0  0  0  0  0  0  0  0  0  0  0  0
    3.7408   -0.5868   -0.0000 C   0  0  0  0  0  0  0  0  0  0  0  0
    2.3839   -4.1687   -0.0000 N   0  0  0  0  0  0  0  0  0  0  0  0
    3.7286   -2.1271   -0.0000 C   0  0  0  0  0  0  0  0  0  0  0  0
    5.1956   -0.0978   -0.0000 C   0  0  0  0  0  0  0  0  0  0  0  0
    5.1834   -2.5917   -0.0000 N   0  0  0  0  0  0  0  0  0  0  0  0
    5.6602    1.3936   -0.0000 C   0  0  0  0  0  0  0  0  0  0  0  0
    6.0880   -1.3081   -0.0000 C   0  0  0  0  0  0  0  0  0  0  0  0
    4.6944    2.6284   -0.0000 C   0  0  0  0  0  0  0  0  0  0  0  0
    7.1883    1.6259   -0.0000 C   0  0  0  0  0  0  0  0  0  0  0  0
    7.6284   -1.2836   -0.0000 C   0  0  0  0  0  0  0  0  0  0  0  0
    3.1418    2.4205   -0.0000 O   0  0  0  0  0  0  0  0  0  0  0  0
    5.2567    4.0831   -0.0000 C   0  0  0  0  0  0  0  0  0  0  0  0
    7.7506    3.0807   -0.0000 C   0  0  0  0  0  0  0  0  0  0  0  0
    8.4108   -2.6039   -0.0000 N   0  0  0  0  0  0  0  0  0  0  0  0
    2.3594    3.4108   -0.0000 C   0  0  0  0  0  0  0  0  0  0  0  0
    6.7849    4.3154   -0.0000 C   0  0  0  0  0  0  0  0  0  0  0  0
    9.9511   -2.5795   -0.0000 C   0  0  0  0  0  0  0  0  0  0  0  0
    7.7873   -3.6675   -0.0000 C   0  0  0  0  0  0  0  0  0  0  0  0
    7.2372    5.4768   -0.0000 F   0  0  0  0  0  0  0  0  0  0  0  0
   10.7335   -3.8998   -0.0000 C   0  0  0  0  0  0  0  0  0  0  0  0
   12.2739   -3.8753   -0.0000 C   0  0  0  0  0  0  0  0  0  0  0  0
    9.9511   -5.2323   -0.0000 C   0  0  0  0  0  0  0  0  0  0  0  0
   13.0441   -5.1956   -0.0000 C   0  0  0  0  0  0  0  0  0  0  0  0
   10.7213   -6.5526   -0.0000 C   0  0  0  0  0  0  0  0  0  0  0  0
   12.2617   -6.5281   -0.0000 C   0  0  0  0  0  0  0  0  0  0  0  0
  1  2  1  0  0  0  0
  2  3  2  0  0  0  0
  2  4  1  0  0  0  0
  3  5  1  0  0  0  0
  4  6  2  0  0  0  0
  5  7  1  0  0  0  0
  5  8  2  0  0  0  0
  6  9  1  0  0  0  0
  8 10  1  0  0  0  0
  9 11  1  0  0  0  0
  9 12  2  0  0  0  0
 11 13  2  0  0  0  0
 11 14  1  0  0  0  0
 12 15  1  0  0  0  0
 13 16  1  0  0  0  0
 13 17  1  0  0  0  0
 14 18  2  0  0  0  0
 15 19  1  0  0  0  0
 16 20  1  0  0  0  0
 17 21  2  0  0  0  0
 19 22  1  0  0  0  0
 19 23  1  0  0  0  0
 21 24  1  0  0  0  0
 22 25  1  0  0  0  0
 25 26  2  0  0  0  0
 25 27  1  0  0  0  0
 26 28  1  0  0  0  0
 27 29  2  0  0  0  0
 28 30  2  0  0  0  0
  6  8  1  0  0  0  0
 10 12  1  0  0  0  0
 18 21  1  0  0  0  0
 29 30  1  0  0  0  0
M  END
>  <MolRegNo>
1958974

>  <m>
=

>  <Value>
4140

>  <Unit>
nM

>  <Type>
Ki

>  <pValue>
5.38

>  <Ligand Efficiency>
0.25

>  <Binding Efficiency>
13.21

>  <Surface Efficiency>
9.92

>  <Assay Index>
955714

>  <Assay Category>


>  <Assay Organism>
Homo sapiens

>  <Target ID>
56

>  <Target Name>
Androgen Receptor

>  <Target Organism>
Homo sapiens

>  <Target Description>
Target is a single protein chain

>  <Sequence Accession>
P10275

>  <Reference>
J Med Chem 58 (16), 6607-6618 (2015)

>  <Pubmed ID>
26218343

>  <DOI>
10.1021/acs.jmedchem.5b00736

$$$$
1958975
Actelion Java MolfileCreator 1.0

 22 24  0  0  0  0  0  0  0  0999 V2000
    0.0000   -0.0000   -0.0000 F   0  0  0  0  0  0  0  0  0  0  0  0
   -1.2431   -0.1584   -0.0000 C   0  0  0  0  0  0  0  0  0  0  0  0
   -1.8281   -1.5844   -0.0000 C   0  0  0  0  0  0  0  0  0  0  0  0
   -2.2060    1.0725   -0.0000 C   0  0  0  0  0  0  0  0  0  0  0  0
   -3.3760   -1.7916   -0.0000 C   0  0  0  0  0  0  0  0  0  0  0  0
   -3.7538    0.8653   -0.0000 C   0  0  0  0  0  0  0  0  0  0  0  0
   -4.3388   -0.5606   -0.0000 C   0  0  0  0  0  0  0  0  0  0  0  0
   -3.8635   -3.2541   -0.0000 C   0  0  0  0  0  0  0  0  0  0  0  0
   -5.8866   -0.7678   -0.0000 O   0  0  0  0  0  0  0  0  0  0  0  0
   -5.3382   -3.7172   -0.0000 C   0  0  0  0  0  0  0  0  0  0  0  0
   -2.9738   -4.4607   -0.0000 C   0  0  0  0  0  0  0  0  0  0  0  0
   -6.6666    0.2194   -0.0000 C   0  0  0  0  0  0  0  0  0  0  0  0
   -5.3503   -5.2528   -0.0000 C   0  0  0  0  0  0  0  0  0  0  0  0
   -6.6910   -2.9128   -0.0000 C   0  0  0  0  0  0  0  0  0  0  0  0
   -3.8878   -5.7038   -0.0000 N   0  0  0  0  0  0  0  0  0  0  0  0
   -6.7032   -6.0328   -0.0000 C   0  0  0  0  0  0  0  0  0  0  0  0
   -8.0560   -3.6928   -0.0000 C   0  0  0  0  0  0  0  0  0  0  0  0
   -6.7154   -7.5685   -0.0000 N   0  0  0  0  0  0  0  0  0  0  0  0
   -8.0682   -5.2285   -0.0000 C   0  0  0  0  0  0  0  0  0  0  0  0
   -8.0682   -8.3363   -0.0000 C   0  0  0  0  0  0  0  0  0  0  0  0
   -8.0804   -9.5672   -0.0000 O   0  0  0  0  0  0  0  0  0  0  0  0
   -9.1529   -7.7147   -0.0000 C   0  0  0  0  0  0  0  0  0  0  0  0
  1  2  1  0  0  0  0
  2  3  2  0  0  0  0
  2  4  1  0  0  0  0
  3  5  1  0  0  0  0
  4  6  2  0  0  0  0
  5  7  2  0  0  0  0
  5  8  1  0  0  0  0
  7  9  1  0  0  0  0
  8 10  1  0  0  0  0
  8 11  2  0  0  0  0
  9 12  1  0  0  0  0
 10 13  2  0  0  0  0
 10 14  1  0  0  0  0
 11 15  1  0  0  0  0
 13 16  1  0  0  0  0
 14 17  2  0  0  0  0
 16 18  1  0  0  0  0
 16 19  2  0  0  0  0
 18 20  1  0  0  0  0
 20 21  2  0  0  0  0
 20 22  1  0  0  0  0
  6  7  1  0  0  0  0
 13 15  1  0  0  0  0
 17 19  1  0  0  0  0
M  END
>  <MolRegNo>
1958975

>  <m>
=

>  <Value>
6120

>  <Unit>
nM

>  <Type>
Ki

>  <pValue>
5.21

>  <Ligand Efficiency>
0.32

>  <Binding Efficiency>
17.48

>  <Surface Efficiency>
9.63

>  <Assay Index>
955714

>  <Assay Category>


>  <Assay Organism>
Homo sapiens

>  <Target ID>
56

>  <Target Name>
Androgen Receptor

>  <Target Organism>
Homo sapiens

>  <Target Description>
Target is a single protein chain

>  <Sequence Accession>
P10275

>  <Reference>
J Med Chem 58 (16), 6607-6618 (2015)

>  <Pubmed ID>
26218343

>  <DOI>
10.1021/acs.jmedchem.5b00736

$$$$
1958976
Actelion Java MolfileCreator 1.0

 23 25  0  0  0  0  0  0  0  0999 V2000
    0.0000   -0.0000   -0.0000 S   0  0  0  0  0  0  0  0  0  0  0  0
   -0.0123   -1.2380   -0.0000 O   0  0  0  0  0  0  0  0  0  0  0  0
   -1.0909   -0.6129   -0.0000 O   0  0  0  0  0  0  0  0  0  0  0  0
    1.3360    0.7967   -0.0000 N   0  0  0  0  0  0  0  0  0  0  0  0
   -1.0909    0.6251   -0.0000 C   0  0  0  0  0  0  0  0  0  0  0  0
    1.3238    2.3657   -0.0000 C   0  0  0  0  0  0  0  0  0  0  0  0
    2.6598    3.1746   -0.0000 C   0  0  0  0  0  0  0  0  0  0  0  0
   -0.0490    3.1746   -0.0000 C   0  0  0  0  0  0  0  0  0  0  0  0
    4.1184    2.7089   -0.0000 N   0  0  0  0  0  0  0  0  0  0  0  0
    2.6476    4.7436   -0.0000 C   0  0  0  0  0  0  0  0  0  0  0  0
   -0.0613    4.7436   -0.0000 C   0  0  0  0  0  0  0  0  0  0  0  0
    5.0132    3.9836   -0.0000 C   0  0  0  0  0  0  0  0  0  0  0  0
    4.1062    5.2339   -0.0000 C   0  0  0  0  0  0  0  0  0  0  0  0
    1.2870    5.5525   -0.0000 C   0  0  0  0  0  0  0  0  0  0  0  0
   -1.4218    5.5280   -0.0000 O   0  0  0  0  0  0  0  0  0  0  0  0
    6.2512    4.0081   -0.0000 C   0  0  0  0  0  0  0  0  0  0  0  0
    4.5720    6.7292   -0.0000 C   0  0  0  0  0  0  0  0  0  0  0  0
   -1.4464    6.7905   -0.0000 C   0  0  0  0  0  0  0  0  0  0  0  0
    3.6036    7.9672   -0.0000 C   0  0  0  0  0  0  0  0  0  0  0  0
    6.1041    6.9621   -0.0000 C   0  0  0  0  0  0  0  0  0  0  0  0
    4.1675    9.4258   -0.0000 C   0  0  0  0  0  0  0  0  0  0  0  0
    6.6680    8.4207   -0.0000 C   0  0  0  0  0  0  0  0  0  0  0  0
    5.6996    9.6587   -0.0000 C   0  0  0  0  0  0  0  0  0  0  0  0
  1  2  2  0  0  0  0
  1  3  2  0  0  0  0
  1  4  1  0  0  0  0
  1  5  1  0  0  0  0
  4  6  1  0  0  0  0
  6  7  2  0  0  0  0
  6  8  1  0  0  0  0
  7  9  1  0  0  0  0
  7 10  1  0  0  0  0
  8 11  2  0  0  0  0
  9 12  1  0  0  0  0
 10 13  1  0  0  0  0
 10 14  2  0  0  0  0
 11 15  1  0  0  0  0
 12 16  1  0  0  0  0
 13 17  1  0  0  0  0
 15 18  1  0  0  0  0
 17 19  2  0  0  0  0
 17 20  1  0  0  0  0
 19 21  1  0  0  0  0
 20 22  2  0  0  0  0
 21 23  2  0  0  0  0
 11 14  1  0  0  0  0
 12 13  2  0  0  0  0
 22 23  1  0  0  0  0
M  END
>  <MolRegNo>
1958976

>  <m>
=

>  <Value>
4060

>  <Unit>
nM

>  <Type>
Ki

>  <pValue>
5.39

>  <Ligand Efficiency>
0.32

>  <Binding Efficiency>
16.32

>  <Surface Efficiency>
7.57

>  <Assay Index>
955714

>  <Assay Category>


>  <Assay Organism>
Homo sapiens

>  <Target ID>
56

>  <Target Name>
Androgen Receptor

>  <Target Organism>
Homo sapiens

>  <Target Description>
Target is a single protein chain

>  <Sequence Accession>
P10275

>  <Reference>
J Med Chem 58 (16), 6607-6618 (2015)

>  <Pubmed ID>
26218343

>  <DOI>
10.1021/acs.jmedchem.5b00736

$$$$
1958977
Actelion Java MolfileCreator 1.0

 26 28  0  0  0  0  0  0  0  0999 V2000
    0.0000   -0.0000   -0.0000 S   0  0  0  0  0  0  0  0  0  0  0  0
   -0.0124   -1.2506   -0.0000 O   0  0  0  0  0  0  0  0  0  0  0  0
   -1.1020   -0.6191   -0.0000 O   0  0  0  0  0  0  0  0  0  0  0  0
    1.3497    0.8049   -0.0000 N   0  0  0  0  0  0  0  0  0  0  0  0
   -1.1020    0.6315   -0.0000 C   0  0  0  0  0  0  0  0  0  0  0  0
    1.3373    2.3898   -0.0000 C   0  0  0  0  0  0  0  0  0  0  0  0
    2.6870    3.2071   -0.0000 C   0  0  0  0  0  0  0  0  0  0  0  0
   -0.0495    3.2071   -0.0000 C   0  0  0  0  0  0  0  0  0  0  0  0
    4.1605    2.7365   -0.0000 N   0  0  0  0  0  0  0  0  0  0  0  0
    2.6746    4.7920   -0.0000 C   0  0  0  0  0  0  0  0  0  0  0  0
   -0.0619    4.7920   -0.0000 C   0  0  0  0  0  0  0  0  0  0  0  0
    5.0644    4.0243   -0.0000 C   0  0  0  0  0  0  0  0  0  0  0  0
    4.1481    5.2873   -0.0000 C   0  0  0  0  0  0  0  0  0  0  0  0
    1.3002    5.6093   -0.0000 C   0  0  0  0  0  0  0  0  0  0  0  0
   -1.4364    5.5845   -0.0000 O   0  0  0  0  0  0  0  0  0  0  0  0
    6.3151    4.0491   -0.0000 C   0  0  0  0  0  0  0  0  0  0  0  0
    4.6187    6.7980   -0.0000 C   0  0  0  0  0  0  0  0  0  0  0  0
   -1.4611    6.8599   -0.0000 C   0  0  0  0  0  0  0  0  0  0  0  0
    3.6404    8.0486   -0.0000 C   0  0  0  0  0  0  0  0  0  0  0  0
    6.1665    7.0332   -0.0000 C   0  0  0  0  0  0  0  0  0  0  0  0
    2.0679    7.8381   -0.0000 O   0  0  0  0  0  0  0  0  0  0  0  0
    4.2100    9.5221   -0.0000 C   0  0  0  0  0  0  0  0  0  0  0  0
    6.7361    8.5068   -0.0000 C   0  0  0  0  0  0  0  0  0  0  0  0
    1.2754    8.8411   -0.0000 C   0  0  0  0  0  0  0  0  0  0  0  0
    5.7578    9.7574   -0.0000 C   0  0  0  0  0  0  0  0  0  0  0  0
    7.9743    8.6925   -0.0000 F   0  0  0  0  0  0  0  0  0  0  0  0
  1  2  2  0  0  0  0
  1  3  2  0  0  0  0
  1  4  1  0  0  0  0
  1  5  1  0  0  0  0
  4  6  1  0  0  0  0
  6  7  2  0  0  0  0
  6  8  1  0  0  0  0
  7  9  1  0  0  0  0
  7 10  1  0  0  0  0
  8 11  2  0  0  0  0
  9 12  1  0  0  0  0
 10 13  1  0  0  0  0
 10 14  2  0  0  0  0
 11 15  1  0  0  0  0
 12 16  1  0  0  0  0
 13 17  1  0  0  0  0
 15 18  1  0  0  0  0
 17 19  2  0  0  0  0
 17 20  1  0  0  0  0
 19 21  1  0  0  0  0
 19 22  1  0  0  0  0
 20 23  2  0  0  0  0
 21 24  1  0  0  0  0
 22 25  2  0  0  0  0
 23 26  1  0  0  0  0
 11 14  1  0  0  0  0
 12 13  2  0  0  0  0
 23 25  1  0  0  0  0
M  END
>  <MolRegNo>
1958977

>  <m>
=

>  <Value>
1120

>  <Unit>
nM

>  <Type>
Ki

>  <pValue>
5.95

>  <Ligand Efficiency>
0.31

>  <Binding Efficiency>
15.72

>  <Surface Efficiency>
7.4

>  <Assay Index>
955714

>  <Assay Category>


>  <Assay Organism>
Homo sapiens

>  <Target ID>
56

>  <Target Name>
Androgen Receptor

>  <Target Organism>
Homo sapiens

>  <Target Description>
Target is a single protein chain

>  <Sequence Accession>
P10275

>  <Reference>
J Med Chem 58 (16), 6607-6618 (2015)

>  <Pubmed ID>
26218343

>  <DOI>
10.1021/acs.jmedchem.5b00736

$$$$
1958978
Actelion Java MolfileCreator 1.0

 14 15  0  0  0  0  0  0  0  0999 V2000
    0.0000   -0.0000   -0.0000 S   0  0  0  0  0  0  0  0  0  0  0  0
   -0.0123   -1.2384   -0.0000 O   0  0  0  0  0  0  0  0  0  0  0  0
   -1.0913   -0.6131   -0.0000 O   0  0  0  0  0  0  0  0  0  0  0  0
    1.3365    0.7970   -0.0000 N   0  0  0  0  0  0  0  0  0  0  0  0
   -1.0913    0.6253   -0.0000 C   0  0  0  0  0  0  0  0  0  0  0  0
    1.3243    2.3665   -0.0000 C   0  0  0  0  0  0  0  0  0  0  0  0
    2.6608    3.1758   -0.0000 C   0  0  0  0  0  0  0  0  0  0  0  0
   -0.0490    3.1758   -0.0000 C   0  0  0  0  0  0  0  0  0  0  0  0
    4.1200    2.7098   -0.0000 N   0  0  0  0  0  0  0  0  0  0  0  0
    2.6485    4.7453   -0.0000 C   0  0  0  0  0  0  0  0  0  0  0  0
   -0.0613    4.7453   -0.0000 C   0  0  0  0  0  0  0  0  0  0  0  0
    5.0151    3.9851   -0.0000 C   0  0  0  0  0  0  0  0  0  0  0  0
    1.2875    5.5546   -0.0000 C   0  0  0  0  0  0  0  0  0  0  0  0
    4.1077    5.2358   -0.0000 C   0  0  0  0  0  0  0  0  0  0  0  0
  1  2  2  0  0  0  0
  1  3  2  0  0  0  0
  1  4  1  0  0  0  0
  1  5  1  0  0  0  0
  4  6  1  0  0  0  0
  6  7  2  0  0  0  0
  6  8  1  0  0  0  0
  7  9  1  0  0  0  0
  7 10  1  0  0  0  0
  8 11  2  0  0  0  0
  9 12  1  0  0  0  0
 10 13  2  0  0  0  0
 10 14  1  0  0  0  0
 11 13  1  0  0  0  0
 12 14  2  0  0  0  0
M  END
>  <MolRegNo>
1958978

>  <m>
=

>  <Value>
355

>  <Unit>
nM

>  <Type>
Ki

>  <pValue>
6.45

>  <Ligand Efficiency>
0.63

>  <Binding Efficiency>
30.68

>  <Surface Efficiency>
10.41

>  <Assay Index>
955714

>  <Assay Category>


>  <Assay Organism>
Homo sapiens

>  <Target ID>
56

>  <Target Name>
Androgen Receptor

>  <Target Organism>
Homo sapiens

>  <Target Description>
Target is a single protein chain

>  <Sequence Accession>
P10275

>  <Reference>
J Med Chem 58 (16), 6607-6618 (2015)

>  <Pubmed ID>
26218343

>  <DOI>
10.1021/acs.jmedchem.5b00736

$$$$
1958979
Actelion Java MolfileCreator 1.0

 37 40  0  0  0  0  0  0  0  0999 V2000
    0.0000   -0.0000   -0.0000 S   0  0  0  0  0  0  0  0  0  0  0  0
   -0.0124   -1.2481   -0.0000 O   0  0  0  0  0  0  0  0  0  0  0  0
   -1.0998   -0.6179   -0.0000 O   0  0  0  0  0  0  0  0  0  0  0  0
    1.3470    0.8033   -0.0000 N   0  0  0  0  0  0  0  0  0  0  0  0
   -1.0998    0.6302   -0.0000 C   0  0  0  0  0  0  0  0  0  0  0  0
    1.3346    2.3851   -0.0000 C   0  0  0  0  0  0  0  0  0  0  0  0
    2.6817    3.2007   -0.0000 C   0  0  0  0  0  0  0  0  0  0  0  0
   -0.0494    3.2007   -0.0000 C   0  0  0  0  0  0  0  0  0  0  0  0
    4.1522    2.7311   -0.0000 N   0  0  0  0  0  0  0  0  0  0  0  0
    2.6693    4.7825   -0.0000 C   0  0  0  0  0  0  0  0  0  0  0  0
   -0.0618    4.7825   -0.0000 C   0  0  0  0  0  0  0  0  0  0  0  0
    5.0544    4.0163   -0.0000 C   0  0  0  0  0  0  0  0  0  0  0  0
    4.1399    5.2768   -0.0000 C   0  0  0  0  0  0  0  0  0  0  0  0
    1.2976    5.5981   -0.0000 C   0  0  0  0  0  0  0  0  0  0  0  0
   -1.4335    5.5734   -0.0000 C   0  0  0  0  0  0  0  0  0  0  0  0
    6.6114    4.0410   -0.0000 C   0  0  0  0  0  0  0  0  0  0  0  0
    4.6095    6.7845   -0.0000 C   0  0  0  0  0  0  0  0  0  0  0  0
   -2.5334    4.9555   -0.0000 C   0  0  0  0  0  0  0  0  0  0  0  0
   -1.4582    6.8462   -0.0000 C   0  0  0  0  0  0  0  0  0  0  0  0
   -2.5334    6.2036   -0.0000 C   0  0  0  0  0  0  0  0  0  0  0  0
    7.4023    2.7064   -0.0000 N   0  0  0  0  0  0  0  0  0  0  0  0
    3.6332    8.0326   -0.0000 C   0  0  0  0  0  0  0  0  0  0  0  0
    6.1542    7.0193   -0.0000 C   0  0  0  0  0  0  0  0  0  0  0  0
    8.9594    2.7311   -0.0000 C   0  0  0  0  0  0  0  0  0  0  0  0
    6.7721    1.6312   -0.0000 C   0  0  0  0  0  0  0  0  0  0  0  0
    2.0638    7.8225   -0.0000 O   0  0  0  0  0  0  0  0  0  0  0  0
    4.2017    9.5032   -0.0000 C   0  0  0  0  0  0  0  0  0  0  0  0
    6.7227    8.4898   -0.0000 C   0  0  0  0  0  0  0  0  0  0  0  0
    9.7503    1.3964   -0.0000 C   0  0  0  0  0  0  0  0  0  0  0  0
    1.2729    8.8235   -0.0000 C   0  0  0  0  0  0  0  0  0  0  0  0
    5.7464    9.7380   -0.0000 C   0  0  0  0  0  0  0  0  0  0  0  0
   11.3074    1.4212   -0.0000 C   0  0  0  0  0  0  0  0  0  0  0  0
    8.9594    0.0494   -0.0000 C   0  0  0  0  0  0  0  0  0  0  0  0
    6.2036   10.9120   -0.0000 F   0  0  0  0  0  0  0  0  0  0  0  0
   12.0860    0.0865   -0.0000 C   0  0  0  0  0  0  0  0  0  0  0  0
    9.7380   -1.2852   -0.0000 C   0  0  0  0  0  0  0  0  0  0  0  0
   11.2951   -1.2605   -0.0000 C   0  0  0  0  0  0  0  0  0  0  0  0
  1  2  2  0  0  0  0
  1  3  2  0  0  0  0
  1  4  1  0  0  0  0
  1  5  1  0  0  0  0
  4  6  1  0  0  0  0
  6  7  2  0  0  0  0
  6  8  1  0  0  0  0
  7  9  1  0  0  0  0
  7 10  1  0  0  0  0
  8 11  2  0  0  0  0
  9 12  1  0  0  0  0
 10 13  1  0  0  0  0
 10 14  2  0  0  0  0
 11 15  1  0  0  0  0
 12 16  1  0  0  0  0
 13 17  1  0  0  0  0
 15 18  1  0  0  0  0
 15 19  1  0  0  0  0
 15 20  1  0  0  0  0
 16 21  1  0  0  0  0
 17 22  2  0  0  0  0
 17 23  1  0  0  0  0
 21 24  1  0  0  0  0
 21 25  1  0  0  0  0
 22 26  1  0  0  0  0
 22 27  1  0  0  0  0
 23 28  2  0  0  0  0
 24 29  1  0  0  0  0
 26 30  1  0  0  0  0
 27 31  2  0  0  0  0
 29 32  2  0  0  0  0
 29 33  1  0  0  0  0
 31 34  1  0  0  0  0
 32 35  1  0  0  0  0
 33 36  2  0  0  0  0
 35 37  2  0  0  0  0
 11 14  1  0  0  0  0
 12 13  2  0  0  0  0
 28 31  1  0  0  0  0
 36 37  1  0  0  0  0
M  END
>  <MolRegNo>
1958979

>  <m>
=

>  <Value>
231

>  <Unit>
nM

>  <Type>
Ki

>  <pValue>
6.64

>  <Ligand Efficiency>
0.24

>  <Binding Efficiency>
12.67

>  <Surface Efficiency>
8.92

>  <Assay Index>
955714

>  <Assay Category>


>  <Assay Organism>
Homo sapiens

>  <Target ID>
56

>  <Target Name>
Androgen Receptor

>  <Target Organism>
Homo sapiens

>  <Target Description>
Target is a single protein chain

>  <Sequence Accession>
P10275

>  <Reference>
J Med Chem 58 (16), 6607-6618 (2015)

>  <Pubmed ID>
26218343

>  <DOI>
10.1021/acs.jmedchem.5b00736

$$$$
1958980
Actelion Java MolfileCreator 1.0

 33 36  0  0  0  0  0  0  0  0999 V2000
    0.0000   -0.0000   -0.0000 S   0  0  0  0  0  0  0  0  0  0  0  0
   -0.0123   -1.2395   -0.0000 O   0  0  0  0  0  0  0  0  0  0  0  0
   -1.0922   -0.6136   -0.0000 O   0  0  0  0  0  0  0  0  0  0  0  0
    1.3377    0.7977   -0.0000 N   0  0  0  0  0  0  0  0  0  0  0  0
   -1.0922    0.6259   -0.0000 C   0  0  0  0  0  0  0  0  0  0  0  0
    1.3254    2.3685   -0.0000 C   0  0  0  0  0  0  0  0  0  0  0  0
    2.6630    3.1785   -0.0000 C   0  0  0  0  0  0  0  0  0  0  0  0
   -0.0491    3.1785   -0.0000 C   0  0  0  0  0  0  0  0  0  0  0  0
    4.1234    2.7121   -0.0000 N   0  0  0  0  0  0  0  0  0  0  0  0
    2.6508    4.7493   -0.0000 C   0  0  0  0  0  0  0  0  0  0  0  0
   -0.0614    4.7493   -0.0000 C   0  0  0  0  0  0  0  0  0  0  0  0
    5.0193    3.9884   -0.0000 C   0  0  0  0  0  0  0  0  0  0  0  0
    4.1111    5.2402   -0.0000 C   0  0  0  0  0  0  0  0  0  0  0  0
    1.2886    5.5592   -0.0000 C   0  0  0  0  0  0  0  0  0  0  0  0
   -1.4236    5.5347   -0.0000 C   0  0  0  0  0  0  0  0  0  0  0  0
    6.5656    4.0130   -0.0000 C   0  0  0  0  0  0  0  0  0  0  0  0
    4.5775    6.7374   -0.0000 C   0  0  0  0  0  0  0  0  0  0  0  0
   -1.4481    6.7987   -0.0000 C   0  0  0  0  0  0  0  0  0  0  0  0
   -2.5158    4.9211   -0.0000 C   0  0  0  0  0  0  0  0  0  0  0  0
    7.3510    2.6876   -0.0000 C   0  0  0  0  0  0  0  0  0  0  0  0
    3.6080    7.9768   -0.0000 C   0  0  0  0  0  0  0  0  0  0  0  0
    6.1115    6.9705   -0.0000 C   0  0  0  0  0  0  0  0  0  0  0  0
    8.8972    2.7121   -0.0000 C   0  0  0  0  0  0  0  0  0  0  0  0
    6.5656    1.3499   -0.0000 C   0  0  0  0  0  0  0  0  0  0  0  0
    2.0494    7.7682   -0.0000 O   0  0  0  0  0  0  0  0  0  0  0  0
    4.1725    9.4372   -0.0000 C   0  0  0  0  0  0  0  0  0  0  0  0
    6.6760    8.4309   -0.0000 C   0  0  0  0  0  0  0  0  0  0  0  0
    9.6704    1.3867   -0.0000 C   0  0  0  0  0  0  0  0  0  0  0  0
    7.3387    0.0245   -0.0000 C   0  0  0  0  0  0  0  0  0  0  0  0
    1.2640    8.7623   -0.0000 C   0  0  0  0  0  0  0  0  0  0  0  0
    5.7065    9.6704   -0.0000 C   0  0  0  0  0  0  0  0  0  0  0  0
    8.8850    0.0491   -0.0000 C   0  0  0  0  0  0  0  0  0  0  0  0
    6.1606   10.8362   -0.0000 F   0  0  0  0  0  0  0  0  0  0  0  0
  1  2  2  0  0  0  0
  1  3  2  0  0  0  0
  1  4  1  0  0  0  0
  1  5  1  0  0  0  0
  4  6  1  0  0  0  0
  6  7  2  0  0  0  0
  6  8  1  0  0  0  0
  7  9  1  0  0  0  0
  7 10  1  0  0  0  0
  8 11  2  0  0  0  0
  9 12  1  0  0  0  0
 10 13  1  0  0  0  0
 10 14  2  0  0  0  0
 11 15  1  0  0  0  0
 12 16  1  0  0  0  0
 13 17  1  0  0  0  0
 15 18  1  0  0  0  0
 15 19  1  0  0  0  0
 16 20  1  0  0  0  0
 17 21  2  0  0  0  0
 17 22  1  0  0  0  0
 20 23  2  0  0  0  0
 20 24  1  0  0  0  0
 21 25  1  0  0  0  0
 21 26  1  0  0  0  0
 22 27  2  0  0  0  0
 23 28  1  0  0  0  0
 24 29  2  0  0  0  0
 25 30  1  0  0  0  0
 26 31  2  0  0  0  0
 28 32  2  0  0  0  0
 31 33  1  0  0  0  0
 11 14  1  0  0  0  0
 12 13  2  0  0  0  0
 27 31  1  0  0  0  0
 29 32  1  0  0  0  0
M  END
>  <MolRegNo>
1958980

>  <m>
=

>  <Value>
684

>  <Unit>
nM

>  <Type>
Ki

>  <pValue>
6.17

>  <Ligand Efficiency>
0.26

>  <Binding Efficiency>
13.21

>  <Surface Efficiency>
8.66

>  <Assay Index>
955714

>  <Assay Category>


>  <Assay Organism>
Homo sapiens

>  <Target ID>
56

>  <Target Name>
Androgen Receptor

>  <Target Organism>
Homo sapiens

>  <Target Description>
Target is a single protein chain

>  <Sequence Accession>
P10275

>  <Reference>
J Med Chem 58 (16), 6607-6618 (2015)

>  <Pubmed ID>
26218343

>  <DOI>
10.1021/acs.jmedchem.5b00736

$$$$
1958981
Actelion Java MolfileCreator 1.0

 29 32  0  0  0  0  0  0  0  0999 V2000
    0.0000   -0.0000   -0.0000 S   0  0  0  0  0  0  0  0  0  0  0  0
   -0.0122   -1.2293   -0.0000 O   0  0  0  0  0  0  0  0  0  0  0  0
   -1.0832   -0.6086   -0.0000 O   0  0  0  0  0  0  0  0  0  0  0  0
    1.3266    0.7911   -0.0000 N   0  0  0  0  0  0  0  0  0  0  0  0
   -1.0832    0.6207   -0.0000 C   0  0  0  0  0  0  0  0  0  0  0  0
    1.3145    2.3490   -0.0000 C   0  0  0  0  0  0  0  0  0  0  0  0
    2.6411    3.1523   -0.0000 C   0  0  0  0  0  0  0  0  0  0  0  0
   -0.0487    3.1523   -0.0000 C   0  0  0  0  0  0  0  0  0  0  0  0
    4.0895    2.6898   -0.0000 N   0  0  0  0  0  0  0  0  0  0  0  0
    2.6290    4.7102   -0.0000 C   0  0  0  0  0  0  0  0  0  0  0  0
   -0.0609    4.7102   -0.0000 C   0  0  0  0  0  0  0  0  0  0  0  0
    4.9780    3.9556   -0.0000 C   0  0  0  0  0  0  0  0  0  0  0  0
    4.0773    5.1971   -0.0000 C   0  0  0  0  0  0  0  0  0  0  0  0
    1.2780    5.5135   -0.0000 C   0  0  0  0  0  0  0  0  0  0  0  0
    6.5115    3.9799   -0.0000 C   0  0  0  0  0  0  0  0  0  0  0  0
    4.5398    6.6819   -0.0000 C   0  0  0  0  0  0  0  0  0  0  0  0
    7.3635    5.2701   -0.0000 C   0  0  0  0  0  0  0  0  0  0  0  0
    7.1688    2.6046   -0.0000 C   0  0  0  0  0  0  0  0  0  0  0  0
    3.5783    7.9112   -0.0000 C   0  0  0  0  0  0  0  0  0  0  0  0
    6.0612    6.9132   -0.0000 C   0  0  0  0  0  0  0  0  0  0  0  0
    8.8971    5.1727   -0.0000 C   0  0  0  0  0  0  0  0  0  0  0  0
    8.7023    2.5072   -0.0000 C   0  0  0  0  0  0  0  0  0  0  0  0
    2.0326    7.7043   -0.0000 O   0  0  0  0  0  0  0  0  0  0  0  0
    4.1382    9.3596   -0.0000 C   0  0  0  0  0  0  0  0  0  0  0  0
    6.6211    8.3615   -0.0000 C   0  0  0  0  0  0  0  0  0  0  0  0
    9.5665    3.7974   -0.0000 C   0  0  0  0  0  0  0  0  0  0  0  0
    1.2536    8.6902   -0.0000 C   0  0  0  0  0  0  0  0  0  0  0  0
    5.6596    9.5908   -0.0000 C   0  0  0  0  0  0  0  0  0  0  0  0
    7.8382    8.5441   -0.0000 F   0  0  0  0  0  0  0  0  0  0  0  0
  1  2  2  0  0  0  0
  1  3  2  0  0  0  0
  1  4  1  0  0  0  0
  1  5  1  0  0  0  0
  4  6  1  0  0  0  0
  6  7  2  0  0  0  0
  6  8  1  0  0  0  0
  7  9  1  0  0  0  0
  7 10  1  0  0  0  0
  8 11  2  0  0  0  0
  9 12  1  0  0  0  0
 10 13  1  0  0  0  0
 10 14  2  0  0  0  0
 12 15  1  0  0  0  0
 13 16  1  0  0  0  0
 15 17  2  0  0  0  0
 15 18  1  0  0  0  0
 16 19  2  0  0  0  0
 16 20  1  0  0  0  0
 17 21  1  0  0  0  0
 18 22  2  0  0  0  0
 19 23  1  0  0  0  0
 19 24  1  0  0  0  0
 20 25  2  0  0  0  0
 21 26  2  0  0  0  0
 23 27  1  0  0  0  0
 24 28  2  0  0  0  0
 25 29  1  0  0  0  0
 11 14  1  0  0  0  0
 12 13  2  0  0  0  0
 22 26  1  0  0  0  0
 25 28  1  0  0  0  0
M  END
>  <MolRegNo>
1958981

>  <m>
=

>  <Value>
905

>  <Unit>
nM

>  <Type>
Ki

>  <pValue>
6.04

>  <Ligand Efficiency>
0.28

>  <Binding Efficiency>
14.72

>  <Surface Efficiency>
8.49

>  <Assay Index>
955714

>  <Assay Category>


>  <Assay Organism>
Homo sapiens

>  <Target ID>
56

>  <Target Name>
Androgen Receptor

>  <Target Organism>
Homo sapiens

>  <Target Description>
Target is a single protein chain

>  <Sequence Accession>
P10275

>  <Reference>
J Med Chem 58 (16), 6607-6618 (2015)

>  <Pubmed ID>
26218343

>  <DOI>
10.1021/acs.jmedchem.5b00736

$$$$
1958982
Actelion Java MolfileCreator 1.0

 25 27  0  0  0  0  0  0  0  0999 V2000
    0.0000   -0.0000   -0.0000 S   0  0  0  0  0  0  0  0  0  0  0  0
   -0.0124   -1.2530   -0.0000 O   0  0  0  0  0  0  0  0  0  0  0  0
   -1.1041   -0.6203   -0.0000 O   0  0  0  0  0  0  0  0  0  0  0  0
    1.3522    0.8064   -0.0000 N   0  0  0  0  0  0  0  0  0  0  0  0
   -1.1041    0.6327   -0.0000 C   0  0  0  0  0  0  0  0  0  0  0  0
    1.3398    2.3943   -0.0000 C   0  0  0  0  0  0  0  0  0  0  0  0
    2.6920    3.2131   -0.0000 C   0  0  0  0  0  0  0  0  0  0  0  0
   -0.0496    3.2131   -0.0000 C   0  0  0  0  0  0  0  0  0  0  0  0
    4.1683    2.7416   -0.0000 N   0  0  0  0  0  0  0  0  0  0  0  0
    2.6796    4.8010   -0.0000 C   0  0  0  0  0  0  0  0  0  0  0  0
   -0.0620    4.8010   -0.0000 C   0  0  0  0  0  0  0  0  0  0  0  0
    5.0739    4.0318   -0.0000 C   0  0  0  0  0  0  0  0  0  0  0  0
    4.1559    5.2972   -0.0000 C   0  0  0  0  0  0  0  0  0  0  0  0
    1.3026    5.6197   -0.0000 C   0  0  0  0  0  0  0  0  0  0  0  0
   -1.1661    5.4461   -0.0000 F   0  0  0  0  0  0  0  0  0  0  0  0
    6.3269    4.0566   -0.0000 C   0  0  0  0  0  0  0  0  0  0  0  0
    4.6273    6.8107   -0.0000 C   0  0  0  0  0  0  0  0  0  0  0  0
    3.6472    8.0636   -0.0000 C   0  0  0  0  0  0  0  0  0  0  0  0
    6.1780    7.0464   -0.0000 C   0  0  0  0  0  0  0  0  0  0  0  0
    2.0717    7.8527   -0.0000 O   0  0  0  0  0  0  0  0  0  0  0  0
    4.2179    9.5399   -0.0000 C   0  0  0  0  0  0  0  0  0  0  0  0
    6.7486    8.5226   -0.0000 C   0  0  0  0  0  0  0  0  0  0  0  0
    1.2778    8.8576   -0.0000 C   0  0  0  0  0  0  0  0  0  0  0  0
    5.7686    9.7756   -0.0000 C   0  0  0  0  0  0  0  0  0  0  0  0
    6.2276   10.9541   -0.0000 F   0  0  0  0  0  0  0  0  0  0  0  0
  1  2  2  0  0  0  0
  1  3  2  0  0  0  0
  1  4  1  0  0  0  0
  1  5  1  0  0  0  0
  4  6  1  0  0  0  0
  6  7  2  0  0  0  0
  6  8  1  0  0  0  0
  7  9  1  0  0  0  0
  7 10  1  0  0  0  0
  8 11  2  0  0  0  0
  9 12  1  0  0  0  0
 10 13  1  0  0  0  0
 10 14  2  0  0  0  0
 11 15  1  0  0  0  0
 12 16  1  0  0  0  0
 13 17  1  0  0  0  0
 17 18  2  0  0  0  0
 17 19  1  0  0  0  0
 18 20  1  0  0  0  0
 18 21  1  0  0  0  0
 19 22  2  0  0  0  0
 20 23  1  0  0  0  0
 21 24  2  0  0  0  0
 24 25  1  0  0  0  0
 11 14  1  0  0  0  0
 12 13  2  0  0  0  0
 22 24  1  0  0  0  0
M  END
>  <MolRegNo>
1958982

>  <m>
=

>  <Value>
1130

>  <Unit>
nM

>  <Type>
Ki

>  <pValue>
5.95

>  <Ligand Efficiency>
0.32

>  <Binding Efficiency>
16.23

>  <Surface Efficiency>
8.35

>  <Assay Index>
955714

>  <Assay Category>


>  <Assay Organism>
Homo sapiens

>  <Target ID>
56

>  <Target Name>
Androgen Receptor

>  <Target Organism>
Homo sapiens

>  <Target Description>
Target is a single protein chain

>  <Sequence Accession>
P10275

>  <Reference>
J Med Chem 58 (16), 6607-6618 (2015)

>  <Pubmed ID>
26218343

>  <DOI>
10.1021/acs.jmedchem.5b00736

$$$$
1958983
Actelion Java MolfileCreator 1.0

 23 25  0  0  0  0  0  0  0  0999 V2000
    0.0000   -0.0000   -0.0000 Cl  0  0  0  0  0  0  0  0  0  0  0  0
   -1.2517   -0.1595   -0.0000 C   0  0  0  0  0  0  0  0  0  0  0  0
   -1.8407   -1.5953   -0.0000 C   0  0  0  0  0  0  0  0  0  0  0  0
   -2.2211    1.0799   -0.0000 C   0  0  0  0  0  0  0  0  0  0  0  0
   -3.3991   -1.8039   -0.0000 C   0  0  0  0  0  0  0  0  0  0  0  0
   -3.7796    0.8713   -0.0000 C   0  0  0  0  0  0  0  0  0  0  0  0
   -4.3686   -0.5645   -0.0000 C   0  0  0  0  0  0  0  0  0  0  0  0
   -3.8900   -3.2764   -0.0000 C   0  0  0  0  0  0  0  0  0  0  0  0
   -5.9270   -0.7731   -0.0000 O   0  0  0  0  0  0  0  0  0  0  0  0
   -5.3748   -3.7427   -0.0000 C   0  0  0  0  0  0  0  0  0  0  0  0
   -2.9942   -4.4913   -0.0000 C   0  0  0  0  0  0  0  0  0  0  0  0
   -6.7124    0.2209   -0.0000 C   0  0  0  0  0  0  0  0  0  0  0  0
   -5.3871   -5.2889   -0.0000 C   0  0  0  0  0  0  0  0  0  0  0  0
   -6.7369   -2.9328   -0.0000 C   0  0  0  0  0  0  0  0  0  0  0  0
   -3.9145   -5.7430   -0.0000 N   0  0  0  0  0  0  0  0  0  0  0  0
   -6.7492   -6.0743   -0.0000 C   0  0  0  0  0  0  0  0  0  0  0  0
   -8.1113   -3.7182   -0.0000 C   0  0  0  0  0  0  0  0  0  0  0  0
   -6.7615   -7.6205   -0.0000 N   0  0  0  0  0  0  0  0  0  0  0  0
   -8.1236   -5.2644   -0.0000 C   0  0  0  0  0  0  0  0  0  0  0  0
   -8.1236   -8.3936   -0.0000 S   0  0  0  0  0  0  0  0  0  0  0  0
   -8.1359   -9.6330   -0.0000 O   0  0  0  0  0  0  0  0  0  0  0  0
   -9.2157   -9.0071   -0.0000 O   0  0  0  0  0  0  0  0  0  0  0  0
   -9.2157   -7.7677   -0.0000 C   0  0  0  0  0  0  0  0  0  0  0  0
  1  2  1  0  0  0  0
  2  3  2  0  0  0  0
  2  4  1  0  0  0  0
  3  5  1  0  0  0  0
  4  6  2  0  0  0  0
  5  7  2  0  0  0  0
  5  8  1  0  0  0  0
  7  9  1  0  0  0  0
  8 10  1  0  0  0  0
  8 11  2  0  0  0  0
  9 12  1  0  0  0  0
 10 13  2  0  0  0  0
 10 14  1  0  0  0  0
 11 15  1  0  0  0  0
 13 16  1  0  0  0  0
 14 17  2  0  0  0  0
 16 18  1  0  0  0  0
 16 19  2  0  0  0  0
 18 20  1  0  0  0  0
 20 21  2  0  0  0  0
 20 22  2  0  0  0  0
 20 23  1  0  0  0  0
  6  7  1  0  0  0  0
 13 15  1  0  0  0  0
 17 19  1  0  0  0  0
M  END
>  <MolRegNo>
1958983

>  <m>
=

>  <Value>
697

>  <Unit>
nM

>  <Type>
Ki

>  <pValue>
6.16

>  <Ligand Efficiency>
0.37

>  <Binding Efficiency>
17.55

>  <Surface Efficiency>
8.65

>  <Assay Index>
955714

>  <Assay Category>


>  <Assay Organism>
Homo sapiens

>  <Target ID>
56

>  <Target Name>
Androgen Receptor

>  <Target Organism>
Homo sapiens

>  <Target Description>
Target is a single protein chain

>  <Sequence Accession>
P10275

>  <Reference>
J Med Chem 58 (16), 6607-6618 (2015)

>  <Pubmed ID>
26218343

>  <DOI>
10.1021/acs.jmedchem.5b00736

$$$$
1958985
Actelion Java MolfileCreator 1.0

 21 23  0  0  0  0  0  0  0  0999 V2000
    0.0000   -0.0000   -0.0000 Cl  0  0  0  0  0  0  0  0  0  0  0  0
    0.7604   -0.9688   -0.0000 C   0  0  0  0  0  0  0  0  0  0  0  0
    0.1717   -2.4037   -0.0000 C   0  0  0  0  0  0  0  0  0  0  0  0
    2.2933   -0.7358   -0.0000 C   0  0  0  0  0  0  0  0  0  0  0  0
    1.1160   -3.6178   -0.0000 C   0  0  0  0  0  0  0  0  0  0  0  0
    3.2377   -1.9500   -0.0000 C   0  0  0  0  0  0  0  0  0  0  0  0
    0.6255   -5.0895   -0.0000 C   0  0  0  0  0  0  0  0  0  0  0  0
    2.6490   -3.3848   -0.0000 C   0  0  0  0  0  0  0  0  0  0  0  0
   -0.8585   -5.5555   -0.0000 C   0  0  0  0  0  0  0  0  0  0  0  0
    1.5207   -6.3036   -0.0000 C   0  0  0  0  0  0  0  0  0  0  0  0
   -0.8707   -7.1008   -0.0000 C   0  0  0  0  0  0  0  0  0  0  0  0
   -2.2198   -4.7461   -0.0000 C   0  0  0  0  0  0  0  0  0  0  0  0
    0.6009   -7.5546   -0.0000 N   0  0  0  0  0  0  0  0  0  0  0  0
   -2.2320   -7.8857   -0.0000 C   0  0  0  0  0  0  0  0  0  0  0  0
   -3.5933   -5.5310   -0.0000 C   0  0  0  0  0  0  0  0  0  0  0  0
   -2.2443   -9.4309   -0.0000 N   0  0  0  0  0  0  0  0  0  0  0  0
   -3.6056   -7.0763   -0.0000 C   0  0  0  0  0  0  0  0  0  0  0  0
   -3.6056  -10.2036   -0.0000 S   0  0  0  0  0  0  0  0  0  0  0  0
   -3.6178  -11.4422   -0.0000 O   0  0  0  0  0  0  0  0  0  0  0  0
   -4.6971  -10.8168   -0.0000 O   0  0  0  0  0  0  0  0  0  0  0  0
   -4.6971   -9.5781   -0.0000 C   0  0  0  0  0  0  0  0  0  0  0  0
  1  2  1  0  0  0  0
  2  3  2  0  0  0  0
  2  4  1  0  0  0  0
  3  5  1  0  0  0  0
  4  6  2  0  0  0  0
  5  7  1  0  0  0  0
  5  8  2  0  0  0  0
  7  9  1  0  0  0  0
  7 10  2  0  0  0  0
  9 11  2  0  0  0  0
  9 12  1  0  0  0  0
 10 13  1  0  0  0  0
 11 14  1  0  0  0  0
 12 15  2  0  0  0  0
 14 16  1  0  0  0  0
 14 17  2  0  0  0  0
 16 18  1  0  0  0  0
 18 19  2  0  0  0  0
 18 20  2  0  0  0  0
 18 21  1  0  0  0  0
  6  8  1  0  0  0  0
 11 13  1  0  0  0  0
 15 17  1  0  0  0  0
M  END
>  <MolRegNo>
1958985

>  <m>
=

>  <Value>
91

>  <Unit>
nM

>  <Type>
Ki

>  <pValue>
7.04

>  <Ligand Efficiency>
0.46

>  <Binding Efficiency>
21.95

>  <Surface Efficiency>
11.36

>  <Assay Index>
955714

>  <Assay Category>


>  <Assay Organism>
Homo sapiens

>  <Target ID>
56

>  <Target Name>
Androgen Receptor

>  <Target Organism>
Homo sapiens

>  <Target Description>
Target is a single protein chain

>  <Sequence Accession>
P10275

>  <Reference>
J Med Chem 58 (16), 6607-6618 (2015)

>  <Pubmed ID>
26218343

>  <DOI>
10.1021/acs.jmedchem.5b00736

$$$$
1958986
Actelion Java MolfileCreator 1.0

 22 24  0  0  0  0  0  0  0  0999 V2000
    0.0000   -0.0000   -0.0000 S   0  0  0  0  0  0  0  0  0  0  0  0
   -0.0122   -1.2290   -0.0000 O   0  0  0  0  0  0  0  0  0  0  0  0
   -1.0829   -0.6084   -0.0000 O   0  0  0  0  0  0  0  0  0  0  0  0
    1.3263    0.7909   -0.0000 N   0  0  0  0  0  0  0  0  0  0  0  0
   -1.0829    0.6206   -0.0000 C   0  0  0  0  0  0  0  0  0  0  0  0
    1.3141    2.3484   -0.0000 C   0  0  0  0  0  0  0  0  0  0  0  0
    2.6404    3.1515   -0.0000 C   0  0  0  0  0  0  0  0  0  0  0  0
   -0.0487    3.1515   -0.0000 C   0  0  0  0  0  0  0  0  0  0  0  0
    4.0884    2.6891   -0.0000 N   0  0  0  0  0  0  0  0  0  0  0  0
    2.6283    4.7090   -0.0000 C   0  0  0  0  0  0  0  0  0  0  0  0
   -0.0608    4.7090   -0.0000 C   0  0  0  0  0  0  0  0  0  0  0  0
    4.9767    3.9546   -0.0000 C   0  0  0  0  0  0  0  0  0  0  0  0
    4.0762    5.1957   -0.0000 C   0  0  0  0  0  0  0  0  0  0  0  0
    1.2776    5.5121   -0.0000 C   0  0  0  0  0  0  0  0  0  0  0  0
    4.5386    6.6802   -0.0000 C   0  0  0  0  0  0  0  0  0  0  0  0
    3.5774    7.9091   -0.0000 C   0  0  0  0  0  0  0  0  0  0  0  0
    6.0596    6.9114   -0.0000 C   0  0  0  0  0  0  0  0  0  0  0  0
    2.0320    7.7023   -0.0000 O   0  0  0  0  0  0  0  0  0  0  0  0
    4.1371    9.3571   -0.0000 C   0  0  0  0  0  0  0  0  0  0  0  0
    6.6193    8.3593   -0.0000 C   0  0  0  0  0  0  0  0  0  0  0  0
    1.2533    8.6879   -0.0000 C   0  0  0  0  0  0  0  0  0  0  0  0
    5.6581    9.5883   -0.0000 C   0  0  0  0  0  0  0  0  0  0  0  0
  1  2  2  0  0  0  0
  1  3  2  0  0  0  0
  1  4  1  0  0  0  0
  1  5  1  0  0  0  0
  4  6  1  0  0  0  0
  6  7  2  0  0  0  0
  6  8  1  0  0  0  0
  7  9  1  0  0  0  0
  7 10  1  0  0  0  0
  8 11  2  0  0  0  0
  9 12  1  0  0  0  0
 10 13  1  0  0  0  0
 10 14  2  0  0  0  0
 13 15  1  0  0  0  0
 15 16  2  0  0  0  0
 15 17  1  0  0  0  0
 16 18  1  0  0  0  0
 16 19  1  0  0  0  0
 17 20  2  0  0  0  0
 18 21  1  0  0  0  0
 19 22  2  0  0  0  0
 11 14  1  0  0  0  0
 12 13  2  0  0  0  0
 20 22  1  0  0  0  0
M  END
>  <MolRegNo>
1958986

>  <m>
=

>  <Value>
401

>  <Unit>
nM

>  <Type>
Ki

>  <pValue>
6.4

>  <Ligand Efficiency>
0.4

>  <Binding Efficiency>
20.22

>  <Surface Efficiency>
8.99

>  <Assay Index>
955714

>  <Assay Category>


>  <Assay Organism>
Homo sapiens

>  <Target ID>
56

>  <Target Name>
Androgen Receptor

>  <Target Organism>
Homo sapiens

>  <Target Description>
Target is a single protein chain

>  <Sequence Accession>
P10275

>  <Reference>
J Med Chem 58 (16), 6607-6618 (2015)

>  <Pubmed ID>
26218343

>  <DOI>
10.1021/acs.jmedchem.5b00736

$$$$
1958987
Actelion Java MolfileCreator 1.0

 21 23  0  0  0  0  0  0  0  0999 V2000
    0.0000   -0.0000   -0.0000 S   0  0  0  0  0  0  0  0  0  0  0  0
   -0.0122   -1.2316   -0.0000 O   0  0  0  0  0  0  0  0  0  0  0  0
   -1.0853   -0.6097   -0.0000 O   0  0  0  0  0  0  0  0  0  0  0  0
    1.3292    0.7926   -0.0000 N   0  0  0  0  0  0  0  0  0  0  0  0
   -1.0853    0.6219   -0.0000 C   0  0  0  0  0  0  0  0  0  0  0  0
    1.3170    2.3535   -0.0000 C   0  0  0  0  0  0  0  0  0  0  0  0
    2.6462    3.1583   -0.0000 C   0  0  0  0  0  0  0  0  0  0  0  0
   -0.0488    3.1583   -0.0000 C   0  0  0  0  0  0  0  0  0  0  0  0
    4.0973    2.6949   -0.0000 N   0  0  0  0  0  0  0  0  0  0  0  0
    2.6340    4.7192   -0.0000 C   0  0  0  0  0  0  0  0  0  0  0  0
   -0.0610    4.7192   -0.0000 C   0  0  0  0  0  0  0  0  0  0  0  0
    4.9875    3.9631   -0.0000 C   0  0  0  0  0  0  0  0  0  0  0  0
    4.0851    5.2070   -0.0000 C   0  0  0  0  0  0  0  0  0  0  0  0
    1.2804    5.5240   -0.0000 C   0  0  0  0  0  0  0  0  0  0  0  0
    4.5485    6.6947   -0.0000 C   0  0  0  0  0  0  0  0  0  0  0  0
    3.5851    7.9263   -0.0000 C   0  0  0  0  0  0  0  0  0  0  0  0
    6.0728    6.9264   -0.0000 C   0  0  0  0  0  0  0  0  0  0  0  0
    4.1461    9.3774   -0.0000 C   0  0  0  0  0  0  0  0  0  0  0  0
    6.6337    8.3775   -0.0000 C   0  0  0  0  0  0  0  0  0  0  0  0
    5.6703    9.6091   -0.0000 C   0  0  0  0  0  0  0  0  0  0  0  0
    6.1215   10.7676   -0.0000 F   0  0  0  0  0  0  0  0  0  0  0  0
  1  2  2  0  0  0  0
  1  3  2  0  0  0  0
  1  4  1  0  0  0  0
  1  5  1  0  0  0  0
  4  6  1  0  0  0  0
  6  7  2  0  0  0  0
  6  8  1  0  0  0  0
  7  9  1  0  0  0  0
  7 10  1  0  0  0  0
  8 11  2  0  0  0  0
  9 12  1  0  0  0  0
 10 13  1  0  0  0  0
 10 14  2  0  0  0  0
 13 15  1  0  0  0  0
 15 16  2  0  0  0  0
 15 17  1  0  0  0  0
 16 18  1  0  0  0  0
 17 19  2  0  0  0  0
 18 20  2  0  0  0  0
 20 21  1  0  0  0  0
 11 14  1  0  0  0  0
 12 13  2  0  0  0  0
 19 20  1  0  0  0  0
M  END
>  <MolRegNo>
1958987

>  <m>
=

>  <Value>
496

>  <Unit>
nM

>  <Type>
Ki

>  <pValue>
6.3

>  <Ligand Efficiency>
0.41

>  <Binding Efficiency>
20.71

>  <Surface Efficiency>
10.18

>  <Assay Index>
955714

>  <Assay Category>


>  <Assay Organism>
Homo sapiens

>  <Target ID>
56

>  <Target Name>
Androgen Receptor

>  <Target Organism>
Homo sapiens

>  <Target Description>
Target is a single protein chain

>  <Sequence Accession>
P10275

>  <Reference>
J Med Chem 58 (16), 6607-6618 (2015)

>  <Pubmed ID>
26218343

>  <DOI>
10.1021/acs.jmedchem.5b00736

$$$$
1966803
Actelion Java MolfileCreator 1.0

 24 27  0  0  0  0  0  0  0  0999 V2000
    0.0000   -0.0000   -0.0000 I   0  0  0  0  0  0  0  0  0  0  0  0
   -0.7459    1.0674   -0.0000 C   0  0  0  0  0  0  0  0  0  0  0  0
   -0.0772    2.5334   -0.0000 C   0  0  0  0  0  0  0  0  0  0  0  0
   -2.3534    0.9388   -0.0000 C   0  0  0  0  0  0  0  0  0  0  0  0
    1.5046    2.6877   -0.0000 C   0  0  0  0  0  0  0  0  0  0  0  0
   -1.0031    3.8580   -0.0000 C   0  0  0  0  0  0  0  0  0  0  0  0
   -3.2793    2.2633   -0.0000 C   0  0  0  0  0  0  0  0  0  0  0  0
    2.7649    2.8163   -0.0000 N   0  0  0  0  0  0  0  0  0  0  0  0
   -2.6106    3.7294   -0.0000 C   0  0  0  0  0  0  0  0  0  0  0  0
   -4.8996    2.2762   -0.0000 N   0  0  0  0  0  0  0  0  0  0  0  0
   -5.9670    0.8873   -0.0000 C   0  0  0  0  0  0  0  0  0  0  0  0
   -5.9670    3.7165   -0.0000 C   0  0  0  0  0  0  0  0  0  0  0  0
   -5.6069   -0.3215   -0.0000 O   0  0  0  0  0  0  0  0  0  0  0  0
   -7.6130    1.4660   -0.0000 C   0  0  0  0  0  0  0  0  0  0  0  0
   -5.5812    4.9510   -0.0000 O   0  0  0  0  0  0  0  0  0  0  0  0
   -7.6130    3.2021   -0.0000 C   0  0  0  0  0  0  0  0  0  0  0  0
   -9.2591    0.9130   -0.0000 C   0  0  0  0  0  0  0  0  0  0  0  0
   -9.2591    3.7422   -0.0000 C   0  0  0  0  0  0  0  0  0  0  0  0
  -10.3265    2.3276   -0.0000 O   0  0  0  0  0  0  0  0  0  0  0  0
   -8.4103    1.9161   -0.0000 C   0  0  0  0  0  0  0  0  0  0  0  0
   -9.1948   -0.1415   -0.0000 C   0  0  0  0  0  0  0  0  0  0  0  0
   -8.4103    3.0221   -0.0000 C   0  0  0  0  0  0  0  0  0  0  0  0
   -9.2848    4.8224   -0.0000 C   0  0  0  0  0  0  0  0  0  0  0  0
   -7.4201    1.5560   -0.0000 O   0  0  0  0  0  0  0  0  0  0  0  0
  1  2  1  0  0  0  0
  2  3  2  0  0  0  0
  2  4  1  0  0  0  0
  3  5  1  0  0  0  0
  3  6  1  0  0  0  0
  4  7  2  0  0  0  0
  5  8  3  0  0  0  0
  6  9  2  0  0  0  0
  7 10  1  0  0  0  0
 10 11  1  0  0  0  0
 10 12  1  0  0  0  0
 11 13  2  0  0  0  0
 14 11  1  1  0  0  0
 12 15  2  0  0  0  0
 16 12  1  1  0  0  0
 14 17  1  0  0  0  0
 16 18  1  0  0  0  0
 17 19  1  0  0  0  0
 17 20  1  0  0  0  0
 17 21  1  6  0  0  0
 18 22  1  0  0  0  0
 18 23  1  1  0  0  0
 20 24  1  6  0  0  0
  7  9  1  0  0  0  0
 14 16  1  0  0  0  0
 18 19  1  0  0  0  0
 20 22  1  0  0  0  0
M  END
>  <MolRegNo>
1966803

>  <m>
=

>  <Value>
8

>  <Unit>
nM

>  <Type>
Ki

>  <pValue>
8.1

>  <Ligand Efficiency>
0.46

>  <Binding Efficiency>
18.48

>  <Surface Efficiency>
8.93

>  <Assay Index>
965082

>  <Assay Category>


>  <Assay Organism>
Homo sapiens

>  <Target ID>
56

>  <Target Name>
Androgen Receptor

>  <Target Organism>
Homo sapiens

>  <Target Description>
Target is a single protein chain

>  <Sequence Accession>
P10275

>  <Reference>
ACS Med Chem Lett 6 (8), 908-912 (2015)

>  <Pubmed ID>
26288692

>  <DOI>
10.1021/acsmedchemlett.5b00173

$$$$
1966804
Actelion Java MolfileCreator 1.0

 29 32  0  0  0  0  0  0  0  0999 V2000
    0.0000   -0.0000   -0.0000 F   0  0  0  0  0  0  0  0  0  0  0  0
   -1.2801    0.1280   -0.0000 C   0  0  0  0  0  0  0  0  0  0  0  0
   -2.0353   -0.8961   -0.0000 F   0  0  0  0  0  0  0  0  0  0  0  0
   -0.7552   -1.0241   -0.0000 F   0  0  0  0  0  0  0  0  0  0  0  0
   -1.9585    1.5873   -0.0000 C   0  0  0  0  0  0  0  0  0  0  0  0
   -1.0497    2.9058   -0.0000 C   0  0  0  0  0  0  0  0  0  0  0  0
   -3.5586    1.7409   -0.0000 C   0  0  0  0  0  0  0  0  0  0  0  0
    0.5248    2.7778   -0.0000 C   0  0  0  0  0  0  0  0  0  0  0  0
   -1.7281    4.3651   -0.0000 C   0  0  0  0  0  0  0  0  0  0  0  0
   -4.2371    3.2130   -0.0000 C   0  0  0  0  0  0  0  0  0  0  0  0
    1.7793    2.6754   -0.0000 N   0  0  0  0  0  0  0  0  0  0  0  0
   -3.3282    4.5187   -0.0000 C   0  0  0  0  0  0  0  0  0  0  0  0
   -5.8500    3.2258   -0.0000 N   0  0  0  0  0  0  0  0  0  0  0  0
   -6.9124    1.8433   -0.0000 C   0  0  0  0  0  0  0  0  0  0  0  0
   -6.9124    4.6595   -0.0000 C   0  0  0  0  0  0  0  0  0  0  0  0
   -6.5540    0.6400   -0.0000 O   0  0  0  0  0  0  0  0  0  0  0  0
   -8.5509    2.4193   -0.0000 C   0  0  0  0  0  0  0  0  0  0  0  0
   -6.5284    5.8884   -0.0000 O   0  0  0  0  0  0  0  0  0  0  0  0
   -8.5509    4.1475   -0.0000 C   0  0  0  0  0  0  0  0  0  0  0  0
  -10.1894    1.8689   -0.0000 C   0  0  0  0  0  0  0  0  0  0  0  0
  -10.1894    4.6851   -0.0000 C   0  0  0  0  0  0  0  0  0  0  0  0
  -11.2519    3.2770   -0.0000 O   0  0  0  0  0  0  0  0  0  0  0  0
   -9.3446    2.8674   -0.0000 C   0  0  0  0  0  0  0  0  0  0  0  0
  -11.3543    2.4449   -0.0000 C   0  0  0  0  0  0  0  0  0  0  0  0
   -9.3446    3.9682   -0.0000 C   0  0  0  0  0  0  0  0  0  0  0  0
  -10.2278    5.9780   -0.0000 C   0  0  0  0  0  0  0  0  0  0  0  0
   -7.8213    2.4193   -0.0000 C   0  0  0  0  0  0  0  0  0  0  0  0
   -7.5397    1.1905   -0.0000 O   0  0  0  0  0  0  0  0  0  0  0  0
   -6.8996    3.3154   -0.0000 O   0  0  0  0  0  0  0  0  0  0  0  0
  1  2  1  0  0  0  0
  2  3  1  0  0  0  0
  2  4  1  0  0  0  0
  2  5  1  0  0  0  0
  5  6  2  0  0  0  0
  5  7  1  0  0  0  0
  6  8  1  0  0  0  0
  6  9  1  0  0  0  0
  7 10  2  0  0  0  0
  8 11  3  0  0  0  0
  9 12  2  0  0  0  0
 10 13  1  0  0  0  0
 13 14  1  0  0  0  0
 13 15  1  0  0  0  0
 14 16  2  0  0  0  0
 17 14  1  1  0  0  0
 15 18  2  0  0  0  0
 19 15  1  1  0  0  0
 17 20  1  0  0  0  0
 19 21  1  0  0  0  0
 20 22  1  0  0  0  0
 20 23  1  0  0  0  0
 20 24  1  6  0  0  0
 21 25  1  0  0  0  0
 21 26  1  1  0  0  0
 23 27  1  1  0  0  0
 27 28  2  0  0  0  0
 27 29  1  0  0  0  0
 10 12  1  0  0  0  0
 17 19  1  0  0  0  0
 21 22  1  0  0  0  0
 23 25  1  0  0  0  0
M  END
>  <MolRegNo>
1966804

>  <m>
=

>  <Value>
1600

>  <Unit>
nM

>  <Type>
Ki

>  <pValue>
5.8

>  <Ligand Efficiency>
0.27

>  <Binding Efficiency>
14.19

>  <Surface Efficiency>
5.38

>  <Assay Index>
965082

>  <Assay Category>


>  <Assay Organism>
Homo sapiens

>  <Target ID>
56

>  <Target Name>
Androgen Receptor

>  <Target Organism>
Homo sapiens

>  <Target Description>
Target is a single protein chain

>  <Sequence Accession>
P10275

>  <Reference>
ACS Med Chem Lett 6 (8), 908-912 (2015)

>  <Pubmed ID>
26288692

>  <DOI>
10.1021/acsmedchemlett.5b00173

$$$$
1966805
Actelion Java MolfileCreator 1.0

 32 35  0  0  0  0  0  0  0  0999 V2000
    0.0000   -0.0000   -0.0000 F   0  0  0  0  0  0  0  0  0  0  0  0
   -1.2806    0.1281   -0.0000 C   0  0  0  0  0  0  0  0  0  0  0  0
   -2.0361   -0.8964   -0.0000 F   0  0  0  0  0  0  0  0  0  0  0  0
   -0.7555   -1.0244   -0.0000 F   0  0  0  0  0  0  0  0  0  0  0  0
   -1.9593    1.5879   -0.0000 C   0  0  0  0  0  0  0  0  0  0  0  0
   -1.0501    2.9069   -0.0000 C   0  0  0  0  0  0  0  0  0  0  0  0
   -3.5599    1.7416   -0.0000 C   0  0  0  0  0  0  0  0  0  0  0  0
    0.5250    2.7788   -0.0000 C   0  0  0  0  0  0  0  0  0  0  0  0
   -1.7288    4.3667   -0.0000 C   0  0  0  0  0  0  0  0  0  0  0  0
   -4.2386    3.2142   -0.0000 C   0  0  0  0  0  0  0  0  0  0  0  0
    1.7800    2.6764   -0.0000 N   0  0  0  0  0  0  0  0  0  0  0  0
   -3.3294    4.5204   -0.0000 C   0  0  0  0  0  0  0  0  0  0  0  0
   -5.8521    3.2270   -0.0000 N   0  0  0  0  0  0  0  0  0  0  0  0
   -6.9150    1.8440   -0.0000 C   0  0  0  0  0  0  0  0  0  0  0  0
   -6.9150    4.6612   -0.0000 C   0  0  0  0  0  0  0  0  0  0  0  0
   -6.5564    0.6403   -0.0000 O   0  0  0  0  0  0  0  0  0  0  0  0
   -8.5541    2.4203   -0.0000 C   0  0  0  0  0  0  0  0  0  0  0  0
   -6.5308    5.8906   -0.0000 O   0  0  0  0  0  0  0  0  0  0  0  0
   -8.5541    4.1490   -0.0000 C   0  0  0  0  0  0  0  0  0  0  0  0
  -10.1932    1.8696   -0.0000 C   0  0  0  0  0  0  0  0  0  0  0  0
  -10.1932    4.6868   -0.0000 C   0  0  0  0  0  0  0  0  0  0  0  0
  -11.2561    3.2782   -0.0000 O   0  0  0  0  0  0  0  0  0  0  0  0
   -9.3481    2.8684   -0.0000 C   0  0  0  0  0  0  0  0  0  0  0  0
  -11.3585    2.4459   -0.0000 C   0  0  0  0  0  0  0  0  0  0  0  0
   -9.3481    3.9697   -0.0000 C   0  0  0  0  0  0  0  0  0  0  0  0
  -10.2316    5.9802   -0.0000 C   0  0  0  0  0  0  0  0  0  0  0  0
   -7.8242    2.4203   -0.0000 C   0  0  0  0  0  0  0  0  0  0  0  0
   -6.9022    3.3166   -0.0000 O   0  0  0  0  0  0  0  0  0  0  0  0
   -7.4656    0.8836   -0.0000 O   0  0  0  0  0  0  0  0  0  0  0  0
   -8.6438   -0.2049   -0.0000 C   0  0  0  0  0  0  0  0  0  0  0  0
   -9.8859    0.1793   -0.0000 C   0  0  0  0  0  0  0  0  0  0  0  0
   -8.3620   -1.4342   -0.0000 C   0  0  0  0  0  0  0  0  0  0  0  0
  1  2  1  0  0  0  0
  2  3  1  0  0  0  0
  2  4  1  0  0  0  0
  2  5  1  0  0  0  0
  5  6  2  0  0  0  0
  5  7  1  0  0  0  0
  6  8  1  0  0  0  0
  6  9  1  0  0  0  0
  7 10  2  0  0  0  0
  8 11  3  0  0  0  0
  9 12  2  0  0  0  0
 10 13  1  0  0  0  0
 13 14  1  0  0  0  0
 13 15  1  0  0  0  0
 14 16  2  0  0  0  0
 17 14  1  1  0  0  0
 15 18  2  0  0  0  0
 19 15  1  1  0  0  0
 17 20  1  0  0  0  0
 19 21  1  0  0  0  0
 20 22  1  0  0  0  0
 20 23  1  0  0  0  0
 20 24  1  6  0  0  0
 21 25  1  0  0  0  0
 21 26  1  1  0  0  0
 23 27  1  1  0  0  0
 27 28  2  0  0  0  0
 27 29  1  0  0  0  0
 29 30  1  0  0  0  0
 30 31  1  0  0  0  0
 30 32  1  0  0  0  0
 10 12  1  0  0  0  0
 17 19  1  0  0  0  0
 21 22  1  0  0  0  0
 23 25  1  0  0  0  0
M  END
>  <MolRegNo>
1966805

>  <m>
=

>  <Value>
23

>  <Unit>
nM

>  <Type>
Ki

>  <pValue>
7.64

>  <Ligand Efficiency>
0.33

>  <Binding Efficiency>
16.96

>  <Surface Efficiency>
7.9

>  <Assay Index>
965082

>  <Assay Category>


>  <Assay Organism>
Homo sapiens

>  <Target ID>
56

>  <Target Name>
Androgen Receptor

>  <Target Organism>
Homo sapiens

>  <Target Description>
Target is a single protein chain

>  <Sequence Accession>
P10275

>  <Reference>
ACS Med Chem Lett 6 (8), 908-912 (2015)

>  <Pubmed ID>
26288692

>  <DOI>
10.1021/acsmedchemlett.5b00173

$$$$
1966806
Actelion Java MolfileCreator 1.0

 36 40  0  0  0  0  0  0  0  0999 V2000
    0.0000   -0.0000   -0.0000 F   0  0  0  0  0  0  0  0  0  0  0  0
   -1.2659    0.1266   -0.0000 C   0  0  0  0  0  0  0  0  0  0  0  0
   -2.0128   -0.8861   -0.0000 F   0  0  0  0  0  0  0  0  0  0  0  0
   -0.7469   -1.0127   -0.0000 F   0  0  0  0  0  0  0  0  0  0  0  0
   -1.9368    1.5697   -0.0000 C   0  0  0  0  0  0  0  0  0  0  0  0
   -1.0380    2.8736   -0.0000 C   0  0  0  0  0  0  0  0  0  0  0  0
   -3.5192    1.7216   -0.0000 C   0  0  0  0  0  0  0  0  0  0  0  0
    0.5190    2.7470   -0.0000 C   0  0  0  0  0  0  0  0  0  0  0  0
   -1.7089    4.3167   -0.0000 C   0  0  0  0  0  0  0  0  0  0  0  0
   -4.1901    3.1774   -0.0000 C   0  0  0  0  0  0  0  0  0  0  0  0
    1.7596    2.6457   -0.0000 N   0  0  0  0  0  0  0  0  0  0  0  0
   -3.2913    4.4686   -0.0000 C   0  0  0  0  0  0  0  0  0  0  0  0
   -5.7851    3.1900   -0.0000 N   0  0  0  0  0  0  0  0  0  0  0  0
   -6.8358    1.8229   -0.0000 C   0  0  0  0  0  0  0  0  0  0  0  0
   -6.8358    4.6078   -0.0000 C   0  0  0  0  0  0  0  0  0  0  0  0
   -6.4813    0.6329   -0.0000 O   0  0  0  0  0  0  0  0  0  0  0  0
   -8.4561    2.3925   -0.0000 C   0  0  0  0  0  0  0  0  0  0  0  0
   -6.4560    5.8231   -0.0000 O   0  0  0  0  0  0  0  0  0  0  0  0
   -8.4561    4.1015   -0.0000 C   0  0  0  0  0  0  0  0  0  0  0  0
  -10.0764    1.8482   -0.0000 C   0  0  0  0  0  0  0  0  0  0  0  0
  -10.0764    4.6331   -0.0000 C   0  0  0  0  0  0  0  0  0  0  0  0
  -11.1271    3.2407   -0.0000 O   0  0  0  0  0  0  0  0  0  0  0  0
   -9.2410    2.8356   -0.0000 C   0  0  0  0  0  0  0  0  0  0  0  0
   -9.0384    2.5697   -0.0000 C   0  0  0  0  0  0  0  0  0  0  0  0
   -9.2410    3.9242   -0.0000 C   0  0  0  0  0  0  0  0  0  0  0  0
  -10.1144    5.9117   -0.0000 C   0  0  0  0  0  0  0  0  0  0  0  0
   -7.7346    2.3925   -0.0000 C   0  0  0  0  0  0  0  0  0  0  0  0
   -6.8231    3.2786   -0.0000 O   0  0  0  0  0  0  0  0  0  0  0  0
   -7.9244    0.8355   -0.0000 N   0  0  0  0  0  0  0  0  0  0  0  0
   -6.6712   -0.1013   -0.0000 C   0  0  0  0  0  0  0  0  0  0  0  0
   -9.1017    0.3418   -0.0000 C   0  0  0  0  0  0  0  0  0  0  0  0
   -5.2408    0.5443   -0.0000 C   0  0  0  0  0  0  0  0  0  0  0  0
   -6.8611   -1.6583   -0.0000 C   0  0  0  0  0  0  0  0  0  0  0  0
   -3.9875   -0.3798   -0.0000 C   0  0  0  0  0  0  0  0  0  0  0  0
   -5.6079   -2.5824   -0.0000 C   0  0  0  0  0  0  0  0  0  0  0  0
   -4.1774   -1.9368   -0.0000 C   0  0  0  0  0  0  0  0  0  0  0  0
  1  2  1  0  0  0  0
  2  3  1  0  0  0  0
  2  4  1  0  0  0  0
  2  5  1  0  0  0  0
  5  6  2  0  0  0  0
  5  7  1  0  0  0  0
  6  8  1  0  0  0  0
  6  9  1  0  0  0  0
  7 10  2  0  0  0  0
  8 11  3  0  0  0  0
  9 12  2  0  0  0  0
 10 13  1  0  0  0  0
 13 14  1  0  0  0  0
 13 15  1  0  0  0  0
 14 16  2  0  0  0  0
 17 14  1  1  0  0  0
 15 18  2  0  0  0  0
 19 15  1  1  0  0  0
 17 20  1  0  0  0  0
 19 21  1  0  0  0  0
 20 22  1  0  0  0  0
 20 23  1  0  0  0  0
 20 24  1  6  0  0  0
 21 25  1  0  0  0  0
 21 26  1  1  0  0  0
 23 27  1  1  0  0  0
 27 28  2  0  0  0  0
 27 29  1  0  0  0  0
 29 30  1  0  0  0  0
 29 31  1  0  0  0  0
 30 32  2  0  0  0  0
 30 33  1  0  0  0  0
 32 34  1  0  0  0  0
 33 35  2  0  0  0  0
 34 36  2  0  0  0  0
 10 12  1  0  0  0  0
 17 19  1  0  0  0  0
 21 22  1  0  0  0  0
 23 25  1  0  0  0  0
 35 36  1  0  0  0  0
M  END
>  <MolRegNo>
1966806

>  <m>
=

>  <Value>
50

>  <Unit>
nM

>  <Type>
Ki

>  <pValue>
7.3

>  <Ligand Efficiency>
0.28

>  <Binding Efficiency>
14.68

>  <Surface Efficiency>
8.05

>  <Assay Index>
965082

>  <Assay Category>


>  <Assay Organism>
Homo sapiens

>  <Target ID>
56

>  <Target Name>
Androgen Receptor

>  <Target Organism>
Homo sapiens

>  <Target Description>
Target is a single protein chain

>  <Sequence Accession>
P10275

>  <Reference>
ACS Med Chem Lett 6 (8), 908-912 (2015)

>  <Pubmed ID>
26288692

>  <DOI>
10.1021/acsmedchemlett.5b00173

$$$$
1966807
Actelion Java MolfileCreator 1.0

 27 30  0  0  0  0  0  0  0  0999 V2000
    0.0000   -0.0000   -0.0000 F   0  0  0  0  0  0  0  0  0  0  0  0
   -0.5587   -1.1563   -0.0000 C   0  0  0  0  0  0  0  0  0  0  0  0
    0.7146   -1.0264   -0.0000 F   0  0  0  0  0  0  0  0  0  0  0  0
   -1.3122   -0.0780   -0.0000 F   0  0  0  0  0  0  0  0  0  0  0  0
   -1.2603   -2.6115   -0.0000 C   0  0  0  0  0  0  0  0  0  0  0  0
   -0.3508   -3.9237   -0.0000 C   0  0  0  0  0  0  0  0  0  0  0  0
   -2.8843   -2.7414   -0.0000 C   0  0  0  0  0  0  0  0  0  0  0  0
    1.2473   -3.7678   -0.0000 C   0  0  0  0  0  0  0  0  0  0  0  0
   -1.0524   -5.3789   -0.0000 C   0  0  0  0  0  0  0  0  0  0  0  0
   -3.5859   -4.1966   -0.0000 C   0  0  0  0  0  0  0  0  0  0  0  0
    2.5205   -3.6379   -0.0000 N   0  0  0  0  0  0  0  0  0  0  0  0
   -2.6765   -5.5088   -0.0000 C   0  0  0  0  0  0  0  0  0  0  0  0
   -5.2230   -4.1836   -0.0000 N   0  0  0  0  0  0  0  0  0  0  0  0
   -6.3014   -5.5868   -0.0000 C   0  0  0  0  0  0  0  0  0  0  0  0
   -6.3014   -2.7284   -0.0000 C   0  0  0  0  0  0  0  0  0  0  0  0
   -5.9376   -6.8081   -0.0000 O   0  0  0  0  0  0  0  0  0  0  0  0
   -7.9644   -5.0021   -0.0000 C   0  0  0  0  0  0  0  0  0  0  0  0
   -5.9116   -1.4811   -0.0000 O   0  0  0  0  0  0  0  0  0  0  0  0
   -7.9644   -3.2481   -0.0000 C   0  0  0  0  0  0  0  0  0  0  0  0
   -9.6274   -5.5608   -0.0000 C   0  0  0  0  0  0  0  0  0  0  0  0
   -9.6274   -2.7024   -0.0000 C   0  0  0  0  0  0  0  0  0  0  0  0
  -10.7058   -4.1316   -0.0000 O   0  0  0  0  0  0  0  0  0  0  0  0
   -8.7699   -4.5474   -0.0000 C   0  0  0  0  0  0  0  0  0  0  0  0
   -9.5625   -6.6262   -0.0000 C   0  0  0  0  0  0  0  0  0  0  0  0
   -8.7699   -3.4300   -0.0000 C   0  0  0  0  0  0  0  0  0  0  0  0
   -9.6534   -1.6111   -0.0000 C   0  0  0  0  0  0  0  0  0  0  0  0
   -7.7695   -4.9112   -0.0000 N   0  0  0  0  0  0  0  0  0  0  0  0
  1  2  1  0  0  0  0
  2  3  1  0  0  0  0
  2  4  1  0  0  0  0
  2  5  1  0  0  0  0
  5  6  2  0  0  0  0
  5  7  1  0  0  0  0
  6  8  1  0  0  0  0
  6  9  1  0  0  0  0
  7 10  2  0  0  0  0
  8 11  3  0  0  0  0
  9 12  2  0  0  0  0
 10 13  1  0  0  0  0
 13 14  1  0  0  0  0
 13 15  1  0  0  0  0
 14 16  2  0  0  0  0
 17 14  1  1  0  0  0
 15 18  2  0  0  0  0
 19 15  1  1  0  0  0
 17 20  1  0  0  0  0
 19 21  1  0  0  0  0
 20 22  1  0  0  0  0
 20 23  1  0  0  0  0
 20 24  1  6  0  0  0
 21 25  1  0  0  0  0
 21 26  1  1  0  0  0
 23 27  1  1  0  0  0
 10 12  1  0  0  0  0
 17 19  1  0  0  0  0
 21 22  1  0  0  0  0
 23 25  1  0  0  0  0
M  END
>  <MolRegNo>
1966807

>  <m>
=

>  <Value>
31

>  <Unit>
nM

>  <Type>
Ki

>  <pValue>
7.51

>  <Ligand Efficiency>
0.38

>  <Binding Efficiency>
19.79

>  <Surface Efficiency>
7.79

>  <Assay Index>
965082

>  <Assay Category>


>  <Assay Organism>
Homo sapiens

>  <Target ID>
56

>  <Target Name>
Androgen Receptor

>  <Target Organism>
Homo sapiens

>  <Target Description>
Target is a single protein chain

>  <Sequence Accession>
P10275

>  <Reference>
ACS Med Chem Lett 6 (8), 908-912 (2015)

>  <Pubmed ID>
26288692

>  <DOI>
10.1021/acsmedchemlett.5b00173

$$$$
1966808
Actelion Java MolfileCreator 1.0

 31 34  0  0  0  0  0  0  0  0999 V2000
    0.0000   -0.0000   -0.0000 F   0  0  0  0  0  0  0  0  0  0  0  0
   -1.2762    0.1276   -0.0000 C   0  0  0  0  0  0  0  0  0  0  0  0
   -2.0291   -0.8933   -0.0000 F   0  0  0  0  0  0  0  0  0  0  0  0
   -0.7529   -1.0209   -0.0000 F   0  0  0  0  0  0  0  0  0  0  0  0
   -1.9525    1.5824   -0.0000 C   0  0  0  0  0  0  0  0  0  0  0  0
   -1.0464    2.8969   -0.0000 C   0  0  0  0  0  0  0  0  0  0  0  0
   -3.5477    1.7356   -0.0000 C   0  0  0  0  0  0  0  0  0  0  0  0
    0.5232    2.7693   -0.0000 C   0  0  0  0  0  0  0  0  0  0  0  0
   -1.7228    4.3517   -0.0000 C   0  0  0  0  0  0  0  0  0  0  0  0
   -4.2241    3.2031   -0.0000 C   0  0  0  0  0  0  0  0  0  0  0  0
    1.7739    2.6672   -0.0000 N   0  0  0  0  0  0  0  0  0  0  0  0
   -3.3180    4.5048   -0.0000 C   0  0  0  0  0  0  0  0  0  0  0  0
   -5.8320    3.2159   -0.0000 N   0  0  0  0  0  0  0  0  0  0  0  0
   -6.8912    1.8377   -0.0000 C   0  0  0  0  0  0  0  0  0  0  0  0
   -6.8912    4.6452   -0.0000 C   0  0  0  0  0  0  0  0  0  0  0  0
   -6.5339    0.6381   -0.0000 O   0  0  0  0  0  0  0  0  0  0  0  0
   -8.5247    2.4119   -0.0000 C   0  0  0  0  0  0  0  0  0  0  0  0
   -6.5084    5.8703   -0.0000 O   0  0  0  0  0  0  0  0  0  0  0  0
   -8.5247    4.1347   -0.0000 C   0  0  0  0  0  0  0  0  0  0  0  0
  -10.1582    1.8632   -0.0000 C   0  0  0  0  0  0  0  0  0  0  0  0
  -10.1582    4.6707   -0.0000 C   0  0  0  0  0  0  0  0  0  0  0  0
  -11.2174    3.2670   -0.0000 O   0  0  0  0  0  0  0  0  0  0  0  0
   -9.3159    2.8586   -0.0000 C   0  0  0  0  0  0  0  0  0  0  0  0
  -11.3195    2.4375   -0.0000 C   0  0  0  0  0  0  0  0  0  0  0  0
   -9.3159    3.9561   -0.0000 C   0  0  0  0  0  0  0  0  0  0  0  0
  -10.1965    5.9596   -0.0000 C   0  0  0  0  0  0  0  0  0  0  0  0
   -7.7973    2.4119   -0.0000 N   0  0  0  0  0  0  0  0  0  0  0  0
   -7.4400    0.8805   -0.0000 C   0  0  0  0  0  0  0  0  0  0  0  0
   -8.3716    0.0128   -0.0000 O   0  0  0  0  0  0  0  0  0  0  0  0
   -5.9214    0.4339   -0.0000 C   0  0  0  0  0  0  0  0  0  0  0  0
   -5.6406   -0.7912   -0.0000 C   0  0  0  0  0  0  0  0  0  0  0  0
  1  2  1  0  0  0  0
  2  3  1  0  0  0  0
  2  4  1  0  0  0  0
  2  5  1  0  0  0  0
  5  6  2  0  0  0  0
  5  7  1  0  0  0  0
  6  8  1  0  0  0  0
  6  9  1  0  0  0  0
  7 10  2  0  0  0  0
  8 11  3  0  0  0  0
  9 12  2  0  0  0  0
 10 13  1  0  0  0  0
 13 14  1  0  0  0  0
 13 15  1  0  0  0  0
 14 16  2  0  0  0  0
 17 14  1  1  0  0  0
 15 18  2  0  0  0  0
 19 15  1  1  0  0  0
 17 20  1  0  0  0  0
 19 21  1  0  0  0  0
 20 22  1  0  0  0  0
 20 23  1  0  0  0  0
 20 24  1  6  0  0  0
 21 25  1  0  0  0  0
 21 26  1  1  0  0  0
 23 27  1  1  0  0  0
 27 28  1  0  0  0  0
 28 29  2  0  0  0  0
 28 30  1  0  0  0  0
 30 31  1  0  0  0  0
 10 12  1  0  0  0  0
 17 19  1  0  0  0  0
 21 22  1  0  0  0  0
 23 25  1  0  0  0  0
M  END
>  <MolRegNo>
1966808

>  <m>
=

>  <Value>
3

>  <Unit>
nM

>  <Type>
Ki

>  <pValue>
8.52

>  <Ligand Efficiency>
0.38

>  <Binding Efficiency>
19.57

>  <Surface Efficiency>
8.57

>  <Assay Index>
965082

>  <Assay Category>


>  <Assay Organism>
Homo sapiens

>  <Target ID>
56

>  <Target Name>
Androgen Receptor

>  <Target Organism>
Homo sapiens

>  <Target Description>
Target is a single protein chain

>  <Sequence Accession>
P10275

>  <Reference>
ACS Med Chem Lett 6 (8), 908-912 (2015)

>  <Pubmed ID>
26288692

>  <DOI>
10.1021/acsmedchemlett.5b00173

$$$$
1966809
Actelion Java MolfileCreator 1.0

 32 35  0  0  0  0  0  0  0  0999 V2000
    0.0000   -0.0000   -0.0000 S   0  0  0  0  0  0  0  0  0  0  0  0
   -0.9485   -0.8660   -0.0000 O   0  0  0  0  0  0  0  0  0  0  0  0
   -1.2372    0.3849   -0.0000 O   0  0  0  0  0  0  0  0  0  0  0  0
   -0.3849    1.5808   -0.0000 N   0  0  0  0  0  0  0  0  0  0  0  0
    1.5259   -0.4399   -0.0000 N   0  0  0  0  0  0  0  0  0  0  0  0
   -1.9382    2.0482   -0.0000 C   0  0  0  0  0  0  0  0  0  0  0  0
    1.8145   -1.6771   -0.0000 C   0  0  0  0  0  0  0  0  0  0  0  0
   -2.8180    1.0722   -0.0000 C   0  0  0  0  0  0  0  0  0  0  0  0
   -1.9520    3.1754   -0.0000 C   0  0  0  0  0  0  0  0  0  0  0  0
   -3.8765    2.4881   -0.0000 O   0  0  0  0  0  0  0  0  0  0  0  0
   -1.1959    1.6496   -0.0000 C   0  0  0  0  0  0  0  0  0  0  0  0
   -3.9865    1.6496   -0.0000 C   0  0  0  0  0  0  0  0  0  0  0  0
   -2.8318    3.9177   -0.0000 C   0  0  0  0  0  0  0  0  0  0  0  0
    0.4261    1.0997   -0.0000 C   0  0  0  0  0  0  0  0  0  0  0  0
   -1.2097    3.4091   -0.0000 C   0  0  0  0  0  0  0  0  0  0  0  0
   -2.8730    5.2099   -0.0000 C   0  0  0  0  0  0  0  0  0  0  0  0
    0.7835   -0.1100   -0.0000 O   0  0  0  0  0  0  0  0  0  0  0  0
    1.4571    2.5156   -0.0000 N   0  0  0  0  0  0  0  0  0  0  0  0
    0.4124    3.9452   -0.0000 C   0  0  0  0  0  0  0  0  0  0  0  0
    3.0517    2.5293   -0.0000 C   0  0  0  0  0  0  0  0  0  0  0  0
    0.7973    5.1824   -0.0000 O   0  0  0  0  0  0  0  0  0  0  0  0
    3.7115    1.0860   -0.0000 C   0  0  0  0  0  0  0  0  0  0  0  0
    3.9590    3.8490   -0.0000 C   0  0  0  0  0  0  0  0  0  0  0  0
    5.2924    0.9485   -0.0000 C   0  0  0  0  0  0  0  0  0  0  0  0
    5.5398    3.7115   -0.0000 C   0  0  0  0  0  0  0  0  0  0  0  0
    6.1996    2.2682   -0.0000 C   0  0  0  0  0  0  0  0  0  0  0  0
    5.9522   -0.4949   -0.0000 C   0  0  0  0  0  0  0  0  0  0  0  0
    7.7805    2.1307   -0.0000 C   0  0  0  0  0  0  0  0  0  0  0  0
    7.2169   -0.6048   -0.0000 F   0  0  0  0  0  0  0  0  0  0  0  0
    5.1961   -1.5259   -0.0000 F   0  0  0  0  0  0  0  0  0  0  0  0
    6.4746   -1.6496   -0.0000 F   0  0  0  0  0  0  0  0  0  0  0  0
    9.0451    2.0207   -0.0000 N   0  0  0  0  0  0  0  0  0  0  0  0
  1  2  2  0  0  0  0
  1  3  2  0  0  0  0
  1  4  1  0  0  0  0
  1  5  1  0  0  0  0
  6  4  1  1  0  0  0
  5  7  1  0  0  0  0
  6  8  1  0  0  0  0
  6  9  1  0  0  0  0
  8 10  1  0  0  0  0
  8 11  1  0  0  0  0
  8 12  1  6  0  0  0
  9 13  1  0  0  0  0
 11 14  1  1  0  0  0
 11 15  1  0  0  0  0
 13 16  1  1  0  0  0
 14 17  2  0  0  0  0
 14 18  1  0  0  0  0
 15 19  1  1  0  0  0
 18 20  1  0  0  0  0
 19 21  2  0  0  0  0
 20 22  2  0  0  0  0
 20 23  1  0  0  0  0
 22 24  1  0  0  0  0
 23 25  2  0  0  0  0
 24 26  2  0  0  0  0
 24 27  1  0  0  0  0
 26 28  1  0  0  0  0
 27 29  1  0  0  0  0
 27 30  1  0  0  0  0
 27 31  1  0  0  0  0
 28 32  3  0  0  0  0
 10 13  1  0  0  0  0
 13 15  1  0  0  0  0
 18 19  1  0  0  0  0
 25 26  1  0  0  0  0
M  END
>  <MolRegNo>
1966809

>  <m>
=

>  <Value>
50

>  <Unit>
nM

>  <Type>
Ki

>  <pValue>
7.3

>  <Ligand Efficiency>
0.31

>  <Binding Efficiency>
15.45

>  <Surface Efficiency>
5.68

>  <Assay Index>
965082

>  <Assay Category>


>  <Assay Organism>
Homo sapiens

>  <Target ID>
56

>  <Target Name>
Androgen Receptor

>  <Target Organism>
Homo sapiens

>  <Target Description>
Target is a single protein chain

>  <Sequence Accession>
P10275

>  <Reference>
ACS Med Chem Lett 6 (8), 908-912 (2015)

>  <Pubmed ID>
26288692

>  <DOI>
10.1021/acsmedchemlett.5b00173

$$$$
1966810
Actelion Java MolfileCreator 1.0

 33 36  0  0  0  0  0  0  0  0999 V2000
    0.0000   -0.0000   -0.0000 F   0  0  0  0  0  0  0  0  0  0  0  0
   -1.2797    0.1280   -0.0000 C   0  0  0  0  0  0  0  0  0  0  0  0
   -2.0348   -0.8958   -0.0000 F   0  0  0  0  0  0  0  0  0  0  0  0
   -0.7550   -1.0238   -0.0000 F   0  0  0  0  0  0  0  0  0  0  0  0
   -1.9580    1.5869   -0.0000 C   0  0  0  0  0  0  0  0  0  0  0  0
   -1.0494    2.9050   -0.0000 C   0  0  0  0  0  0  0  0  0  0  0  0
   -3.5576    1.7404   -0.0000 C   0  0  0  0  0  0  0  0  0  0  0  0
    0.5247    2.7770   -0.0000 C   0  0  0  0  0  0  0  0  0  0  0  0
   -1.7276    4.3639   -0.0000 C   0  0  0  0  0  0  0  0  0  0  0  0
   -4.2359    3.2121   -0.0000 C   0  0  0  0  0  0  0  0  0  0  0  0
    1.7788    2.6746   -0.0000 N   0  0  0  0  0  0  0  0  0  0  0  0
   -3.3273    4.5174   -0.0000 C   0  0  0  0  0  0  0  0  0  0  0  0
   -5.8484    3.2249   -0.0000 N   0  0  0  0  0  0  0  0  0  0  0  0
   -6.9105    1.8428   -0.0000 C   0  0  0  0  0  0  0  0  0  0  0  0
   -6.9105    4.6582   -0.0000 C   0  0  0  0  0  0  0  0  0  0  0  0
   -6.5522    0.6399   -0.0000 O   0  0  0  0  0  0  0  0  0  0  0  0
   -8.5486    2.4187   -0.0000 C   0  0  0  0  0  0  0  0  0  0  0  0
   -6.5266    5.8868   -0.0000 O   0  0  0  0  0  0  0  0  0  0  0  0
   -8.5486    4.1463   -0.0000 C   0  0  0  0  0  0  0  0  0  0  0  0
  -10.1866    1.8684   -0.0000 C   0  0  0  0  0  0  0  0  0  0  0  0
  -10.1866    4.6838   -0.0000 C   0  0  0  0  0  0  0  0  0  0  0  0
  -11.2488    3.2761   -0.0000 O   0  0  0  0  0  0  0  0  0  0  0  0
   -9.3420    2.8666   -0.0000 C   0  0  0  0  0  0  0  0  0  0  0  0
  -11.3512    2.4443   -0.0000 C   0  0  0  0  0  0  0  0  0  0  0  0
   -9.3420    3.9672   -0.0000 C   0  0  0  0  0  0  0  0  0  0  0  0
  -10.2250    5.9763   -0.0000 C   0  0  0  0  0  0  0  0  0  0  0  0
   -7.8191    2.4187   -0.0000 N   0  0  0  0  0  0  0  0  0  0  0  0
   -7.4608    0.8830   -0.0000 C   0  0  0  0  0  0  0  0  0  0  0  0
   -8.3950    0.0128   -0.0000 O   0  0  0  0  0  0  0  0  0  0  0  0
   -5.9379    0.4351   -0.0000 N   0  0  0  0  0  0  0  0  0  0  0  0
   -5.5796   -1.1006   -0.0000 C   0  0  0  0  0  0  0  0  0  0  0  0
   -6.5138   -1.9708   -0.0000 C   0  0  0  0  0  0  0  0  0  0  0  0
   -4.3639   -1.4461   -0.0000 C   0  0  0  0  0  0  0  0  0  0  0  0
  1  2  1  0  0  0  0
  2  3  1  0  0  0  0
  2  4  1  0  0  0  0
  2  5  1  0  0  0  0
  5  6  2  0  0  0  0
  5  7  1  0  0  0  0
  6  8  1  0  0  0  0
  6  9  1  0  0  0  0
  7 10  2  0  0  0  0
  8 11  3  0  0  0  0
  9 12  2  0  0  0  0
 10 13  1  0  0  0  0
 13 14  1  0  0  0  0
 13 15  1  0  0  0  0
 14 16  2  0  0  0  0
 17 14  1  1  0  0  0
 15 18  2  0  0  0  0
 19 15  1  1  0  0  0
 17 20  1  0  0  0  0
 19 21  1  0  0  0  0
 20 22  1  0  0  0  0
 20 23  1  0  0  0  0
 20 24  1  6  0  0  0
 21 25  1  0  0  0  0
 21 26  1  1  0  0  0
 23 27  1  1  0  0  0
 27 28  1  0  0  0  0
 28 29  2  0  0  0  0
 28 30  1  0  0  0  0
 30 31  1  0  0  0  0
 31 32  1  0  0  0  0
 31 33  1  0  0  0  0
 10 12  1  0  0  0  0
 17 19  1  0  0  0  0
 21 22  1  0  0  0  0
 23 25  1  0  0  0  0
M  END
>  <MolRegNo>
1966810

>  <m>
=

>  <Value>
31

>  <Unit>
nM

>  <Type>
Ki

>  <pValue>
7.51

>  <Ligand Efficiency>
0.31

>  <Binding Efficiency>
16.17

>  <Surface Efficiency>
6.73

>  <Assay Index>
965082

>  <Assay Category>


>  <Assay Organism>
Homo sapiens

>  <Target ID>
56

>  <Target Name>
Androgen Receptor

>  <Target Organism>
Homo sapiens

>  <Target Description>
Target is a single protein chain

>  <Sequence Accession>
P10275

>  <Reference>
ACS Med Chem Lett 6 (8), 908-912 (2015)

>  <Pubmed ID>
26288692

>  <DOI>
10.1021/acsmedchemlett.5b00173

$$$$
1966811
Actelion Java MolfileCreator 1.0

 37 41  0  0  0  0  0  0  0  0999 V2000
    0.0000   -0.0000   -0.0000 F   0  0  0  0  0  0  0  0  0  0  0  0
   -1.2647    0.1265   -0.0000 C   0  0  0  0  0  0  0  0  0  0  0  0
   -2.0108   -0.8853   -0.0000 F   0  0  0  0  0  0  0  0  0  0  0  0
   -0.7461   -1.0117   -0.0000 F   0  0  0  0  0  0  0  0  0  0  0  0
   -1.9349    1.5682   -0.0000 C   0  0  0  0  0  0  0  0  0  0  0  0
   -1.0370    2.8708   -0.0000 C   0  0  0  0  0  0  0  0  0  0  0  0
   -3.5157    1.7199   -0.0000 C   0  0  0  0  0  0  0  0  0  0  0  0
    0.5185    2.7443   -0.0000 C   0  0  0  0  0  0  0  0  0  0  0  0
   -1.7073    4.3125   -0.0000 C   0  0  0  0  0  0  0  0  0  0  0  0
   -4.1860    3.1743   -0.0000 C   0  0  0  0  0  0  0  0  0  0  0  0
    1.7579    2.6431   -0.0000 N   0  0  0  0  0  0  0  0  0  0  0  0
   -3.2881    4.4642   -0.0000 C   0  0  0  0  0  0  0  0  0  0  0  0
   -5.7795    3.1869   -0.0000 N   0  0  0  0  0  0  0  0  0  0  0  0
   -6.8291    1.8211   -0.0000 C   0  0  0  0  0  0  0  0  0  0  0  0
   -6.8291    4.6033   -0.0000 C   0  0  0  0  0  0  0  0  0  0  0  0
   -6.4750    0.6323   -0.0000 O   0  0  0  0  0  0  0  0  0  0  0  0
   -8.4479    2.3902   -0.0000 C   0  0  0  0  0  0  0  0  0  0  0  0
   -6.4497    5.8174   -0.0000 O   0  0  0  0  0  0  0  0  0  0  0  0
   -8.4479    4.0975   -0.0000 C   0  0  0  0  0  0  0  0  0  0  0  0
  -10.0667    1.8464   -0.0000 C   0  0  0  0  0  0  0  0  0  0  0  0
  -10.0667    4.6286   -0.0000 C   0  0  0  0  0  0  0  0  0  0  0  0
  -11.1163    3.2375   -0.0000 O   0  0  0  0  0  0  0  0  0  0  0  0
   -9.2320    2.8328   -0.0000 C   0  0  0  0  0  0  0  0  0  0  0  0
   -9.0296    2.5672   -0.0000 C   0  0  0  0  0  0  0  0  0  0  0  0
   -9.2320    3.9204   -0.0000 C   0  0  0  0  0  0  0  0  0  0  0  0
  -10.1046    5.9059   -0.0000 C   0  0  0  0  0  0  0  0  0  0  0  0
   -7.7270    2.3902   -0.0000 N   0  0  0  0  0  0  0  0  0  0  0  0
   -7.3729    0.8726   -0.0000 C   0  0  0  0  0  0  0  0  0  0  0  0
   -8.2961    0.0126   -0.0000 O   0  0  0  0  0  0  0  0  0  0  0  0
   -5.8680    0.4300   -0.0000 O   0  0  0  0  0  0  0  0  0  0  0  0
   -5.5139   -1.0876   -0.0000 N   0  0  0  0  0  0  0  0  0  0  0  0
   -4.0090   -1.5302   -0.0000 C   0  0  0  0  0  0  0  0  0  0  0  0
   -6.6774   -2.1626   -0.0000 C   0  0  0  0  0  0  0  0  0  0  0  0
   -3.6549   -3.0478   -0.0000 C   0  0  0  0  0  0  0  0  0  0  0  0
   -6.3233   -3.6801   -0.0000 C   0  0  0  0  0  0  0  0  0  0  0  0
   -4.8183   -4.1228   -0.0000 N   0  0  0  0  0  0  0  0  0  0  0  0
   -4.5401   -5.3368   -0.0000 C   0  0  0  0  0  0  0  0  0  0  0  0
  1  2  1  0  0  0  0
  2  3  1  0  0  0  0
  2  4  1  0  0  0  0
  2  5  1  0  0  0  0
  5  6  2  0  0  0  0
  5  7  1  0  0  0  0
  6  8  1  0  0  0  0
  6  9  1  0  0  0  0
  7 10  2  0  0  0  0
  8 11  3  0  0  0  0
  9 12  2  0  0  0  0
 10 13  1  0  0  0  0
 13 14  1  0  0  0  0
 13 15  1  0  0  0  0
 14 16  2  0  0  0  0
 17 14  1  1  0  0  0
 15 18  2  0  0  0  0
 19 15  1  1  0  0  0
 17 20  1  0  0  0  0
 19 21  1  0  0  0  0
 20 22  1  0  0  0  0
 20 23  1  0  0  0  0
 20 24  1  6  0  0  0
 21 25  1  0  0  0  0
 21 26  1  1  0  0  0
 23 27  1  1  0  0  0
 27 28  1  0  0  0  0
 28 29  2  0  0  0  0
 28 30  1  0  0  0  0
 30 31  1  0  0  0  0
 31 32  1  0  0  0  0
 31 33  1  0  0  0  0
 32 34  1  0  0  0  0
 33 35  1  0  0  0  0
 34 36  1  0  0  0  0
 36 37  1  0  0  0  0
 10 12  1  0  0  0  0
 17 19  1  0  0  0  0
 21 22  1  0  0  0  0
 23 25  1  0  0  0  0
 35 36  1  0  0  0  0
M  END
>  <MolRegNo>
1966811

>  <m>
=

>  <Value>
7

>  <Unit>
nM

>  <Type>
Ki

>  <pValue>
8.15

>  <Ligand Efficiency>
0.3

>  <Binding Efficiency>
15.64

>  <Surface Efficiency>
7.08

>  <Assay Index>
965082

>  <Assay Category>


>  <Assay Organism>
Homo sapiens

>  <Target ID>
56

>  <Target Name>
Androgen Receptor

>  <Target Organism>
Homo sapiens

>  <Target Description>
Target is a single protein chain

>  <Sequence Accession>
P10275

>  <Reference>
ACS Med Chem Lett 6 (8), 908-912 (2015)

>  <Pubmed ID>
26288692

>  <DOI>
10.1021/acsmedchemlett.5b00173

$$$$
1966812
Actelion Java MolfileCreator 1.0

 31 34  0  0  0  0  0  0  0  0999 V2000
    0.0000   -0.0000   -0.0000 S   0  0  0  0  0  0  0  0  0  0  0  0
    1.0195   -0.7577   -0.0000 O   0  0  0  0  0  0  0  0  0  0  0  0
   -1.1986   -0.4960   -0.0000 O   0  0  0  0  0  0  0  0  0  0  0  0
    0.1653    1.6119   -0.0000 N   0  0  0  0  0  0  0  0  0  0  0  0
   -0.1653   -1.2674   -0.0000 C   0  0  0  0  0  0  0  0  0  0  0  0
   -1.3914    2.0803   -0.0000 C   0  0  0  0  0  0  0  0  0  0  0  0
   -2.2731    1.1021   -0.0000 C   0  0  0  0  0  0  0  0  0  0  0  0
   -1.4052    3.2099   -0.0000 C   0  0  0  0  0  0  0  0  0  0  0  0
   -3.3339    2.5211   -0.0000 O   0  0  0  0  0  0  0  0  0  0  0  0
   -0.6475    1.6807   -0.0000 C   0  0  0  0  0  0  0  0  0  0  0  0
   -3.4441    1.6807   -0.0000 C   0  0  0  0  0  0  0  0  0  0  0  0
   -2.2869    3.9539   -0.0000 C   0  0  0  0  0  0  0  0  0  0  0  0
    0.9781    1.1297   -0.0000 C   0  0  0  0  0  0  0  0  0  0  0  0
   -0.6613    3.4441   -0.0000 C   0  0  0  0  0  0  0  0  0  0  0  0
   -2.3282    5.2489   -0.0000 C   0  0  0  0  0  0  0  0  0  0  0  0
    1.3363   -0.0827   -0.0000 O   0  0  0  0  0  0  0  0  0  0  0  0
    2.0114    2.5487   -0.0000 N   0  0  0  0  0  0  0  0  0  0  0  0
    0.9644    3.9814   -0.0000 C   0  0  0  0  0  0  0  0  0  0  0  0
    3.6095    2.5624   -0.0000 C   0  0  0  0  0  0  0  0  0  0  0  0
    1.3501    5.2213   -0.0000 O   0  0  0  0  0  0  0  0  0  0  0  0
    4.2707    1.1159   -0.0000 C   0  0  0  0  0  0  0  0  0  0  0  0
    4.5187    3.8850   -0.0000 C   0  0  0  0  0  0  0  0  0  0  0  0
    5.8550    0.9781   -0.0000 C   0  0  0  0  0  0  0  0  0  0  0  0
    6.1030    3.7472   -0.0000 C   0  0  0  0  0  0  0  0  0  0  0  0
    6.7643    2.3007   -0.0000 C   0  0  0  0  0  0  0  0  0  0  0  0
    6.5163   -0.4684   -0.0000 C   0  0  0  0  0  0  0  0  0  0  0  0
    8.3486    2.1629   -0.0000 C   0  0  0  0  0  0  0  0  0  0  0  0
    7.7838   -0.5786   -0.0000 F   0  0  0  0  0  0  0  0  0  0  0  0
    5.7586   -1.5016   -0.0000 F   0  0  0  0  0  0  0  0  0  0  0  0
    7.0398   -1.6256   -0.0000 F   0  0  0  0  0  0  0  0  0  0  0  0
    9.6160    2.0527   -0.0000 N   0  0  0  0  0  0  0  0  0  0  0  0
  1  2  2  0  0  0  0
  1  3  2  0  0  0  0
  1  4  1  0  0  0  0
  1  5  1  0  0  0  0
  6  4  1  1  0  0  0
  6  7  1  0  0  0  0
  6  8  1  0  0  0  0
  7  9  1  0  0  0  0
  7 10  1  0  0  0  0
  7 11  1  6  0  0  0
  8 12  1  0  0  0  0
 10 13  1  1  0  0  0
 10 14  1  0  0  0  0
 12 15  1  1  0  0  0
 13 16  2  0  0  0  0
 13 17  1  0  0  0  0
 14 18  1  1  0  0  0
 17 19  1  0  0  0  0
 18 20  2  0  0  0  0
 19 21  2  0  0  0  0
 19 22  1  0  0  0  0
 21 23  1  0  0  0  0
 22 24  2  0  0  0  0
 23 25  2  0  0  0  0
 23 26  1  0  0  0  0
 25 27  1  0  0  0  0
 26 28  1  0  0  0  0
 26 29  1  0  0  0  0
 26 30  1  0  0  0  0
 27 31  3  0  0  0  0
  9 12  1  0  0  0  0
 12 14  1  0  0  0  0
 17 18  1  0  0  0  0
 24 25  1  0  0  0  0
M  END
>  <MolRegNo>
1966812

>  <m>
=

>  <Value>
12

>  <Unit>
nM

>  <Type>
Ki

>  <pValue>
7.92

>  <Ligand Efficiency>
0.35

>  <Binding Efficiency>
17.32

>  <Surface Efficiency>
6.79

>  <Assay Index>
965082

>  <Assay Category>


>  <Assay Organism>
Homo sapiens

>  <Target ID>
56

>  <Target Name>
Androgen Receptor

>  <Target Organism>
Homo sapiens

>  <Target Description>
Target is a single protein chain

>  <Sequence Accession>
P10275

>  <Reference>
ACS Med Chem Lett 6 (8), 908-912 (2015)

>  <Pubmed ID>
26288692

>  <DOI>
10.1021/acsmedchemlett.5b00173

$$$$
1966813
Actelion Java MolfileCreator 1.0

 36 40  0  0  0  0  0  0  0  0999 V2000
    0.0000   -0.0000   -0.0000 S   0  0  0  0  0  0  0  0  0  0  0  0
   -0.9354   -0.8541   -0.0000 O   0  0  0  0  0  0  0  0  0  0  0  0
   -1.2201    0.3796   -0.0000 O   0  0  0  0  0  0  0  0  0  0  0  0
   -0.3796    1.5590   -0.0000 N   0  0  0  0  0  0  0  0  0  0  0  0
    1.5048   -0.4338   -0.0000 C   0  0  0  0  0  0  0  0  0  0  0  0
   -1.9115    2.0199   -0.0000 C   0  0  0  0  0  0  0  0  0  0  0  0
    1.8573   -1.9522   -0.0000 C   0  0  0  0  0  0  0  0  0  0  0  0
    2.6435    0.6643   -0.0000 C   0  0  0  0  0  0  0  0  0  0  0  0
   -2.7791    1.0574   -0.0000 C   0  0  0  0  0  0  0  0  0  0  0  0
   -1.9250    3.1316   -0.0000 C   0  0  0  0  0  0  0  0  0  0  0  0
    3.3620   -2.3860   -0.0000 C   0  0  0  0  0  0  0  0  0  0  0  0
    4.1483    0.2305   -0.0000 C   0  0  0  0  0  0  0  0  0  0  0  0
   -3.8230    2.4537   -0.0000 O   0  0  0  0  0  0  0  0  0  0  0  0
   -1.1794    1.6268   -0.0000 C   0  0  0  0  0  0  0  0  0  0  0  0
   -1.7488    1.7759   -0.0000 C   0  0  0  0  0  0  0  0  0  0  0  0
   -2.7927    3.8636   -0.0000 C   0  0  0  0  0  0  0  0  0  0  0  0
    4.5008   -1.2879   -0.0000 C   0  0  0  0  0  0  0  0  0  0  0  0
    0.4203    1.0845   -0.0000 C   0  0  0  0  0  0  0  0  0  0  0  0
   -1.1930    3.3620   -0.0000 C   0  0  0  0  0  0  0  0  0  0  0  0
   -2.8333    5.1380   -0.0000 C   0  0  0  0  0  0  0  0  0  0  0  0
    0.7727   -0.1085   -0.0000 O   0  0  0  0  0  0  0  0  0  0  0  0
    1.4370    2.4809   -0.0000 N   0  0  0  0  0  0  0  0  0  0  0  0
    0.4067    3.8907   -0.0000 C   0  0  0  0  0  0  0  0  0  0  0  0
    3.0096    2.4944   -0.0000 C   0  0  0  0  0  0  0  0  0  0  0  0
    0.7863    5.1108   -0.0000 O   0  0  0  0  0  0  0  0  0  0  0  0
    3.6603    3.9450   -0.0000 C   0  0  0  0  0  0  0  0  0  0  0  0
    3.8907    1.2201   -0.0000 C   0  0  0  0  0  0  0  0  0  0  0  0
    5.2193    4.0941   -0.0000 C   0  0  0  0  0  0  0  0  0  0  0  0
    5.4498    1.3692   -0.0000 C   0  0  0  0  0  0  0  0  0  0  0  0
    6.1140    2.8062   -0.0000 C   0  0  0  0  0  0  0  0  0  0  0  0
    5.8836    5.5447   -0.0000 C   0  0  0  0  0  0  0  0  0  0  0  0
    7.6730    2.9553   -0.0000 C   0  0  0  0  0  0  0  0  0  0  0  0
    7.1308    5.6667   -0.0000 F   0  0  0  0  0  0  0  0  0  0  0  0
    5.1515    6.6021   -0.0000 F   0  0  0  0  0  0  0  0  0  0  0  0
    6.4123    6.7105   -0.0000 F   0  0  0  0  0  0  0  0  0  0  0  0
    8.9202    3.0774   -0.0000 N   0  0  0  0  0  0  0  0  0  0  0  0
  1  2  2  0  0  0  0
  1  3  2  0  0  0  0
  1  4  1  0  0  0  0
  1  5  1  0  0  0  0
  6  4  1  1  0  0  0
  5  7  2  0  0  0  0
  5  8  1  0  0  0  0
  6  9  1  0  0  0  0
  6 10  1  0  0  0  0
  7 11  1  0  0  0  0
  8 12  2  0  0  0  0
  9 13  1  0  0  0  0
  9 14  1  0  0  0  0
  9 15  1  6  0  0  0
 10 16  1  0  0  0  0
 11 17  2  0  0  0  0
 14 18  1  1  0  0  0
 14 19  1  0  0  0  0
 16 20  1  1  0  0  0
 18 21  2  0  0  0  0
 18 22  1  0  0  0  0
 19 23  1  1  0  0  0
 22 24  1  0  0  0  0
 23 25  2  0  0  0  0
 24 26  2  0  0  0  0
 24 27  1  0  0  0  0
 26 28  1  0  0  0  0
 27 29  2  0  0  0  0
 28 30  2  0  0  0  0
 28 31  1  0  0  0  0
 30 32  1  0  0  0  0
 31 33  1  0  0  0  0
 31 34  1  0  0  0  0
 31 35  1  0  0  0  0
 32 36  3  0  0  0  0
 12 17  1  0  0  0  0
 13 16  1  0  0  0  0
 16 19  1  0  0  0  0
 22 23  1  0  0  0  0
 29 30  1  0  0  0  0
M  END
>  <MolRegNo>
1966813

>  <m>
=

>  <Value>
10

>  <Unit>
nM

>  <Type>
Ki

>  <pValue>
8

>  <Ligand Efficiency>
0.3

>  <Binding Efficiency>
15.4

>  <Surface Efficiency>
6.86

>  <Assay Index>
965082

>  <Assay Category>


>  <Assay Organism>
Homo sapiens

>  <Target ID>
56

>  <Target Name>
Androgen Receptor

>  <Target Organism>
Homo sapiens

>  <Target Description>
Target is a single protein chain

>  <Sequence Accession>
P10275

>  <Reference>
ACS Med Chem Lett 6 (8), 908-912 (2015)

>  <Pubmed ID>
26288692

>  <DOI>
10.1021/acsmedchemlett.5b00173

$$$$
1966814
Actelion Java MolfileCreator 1.0

 37 41  0  0  0  0  0  0  0  0999 V2000
    0.0000   -0.0000   -0.0000 S   0  0  0  0  0  0  0  0  0  0  0  0
   -0.9404   -0.8586   -0.0000 O   0  0  0  0  0  0  0  0  0  0  0  0
   -1.2266    0.3816   -0.0000 O   0  0  0  0  0  0  0  0  0  0  0  0
   -0.3816    1.5673   -0.0000 N   0  0  0  0  0  0  0  0  0  0  0  0
    1.5128   -0.4361   -0.0000 C   0  0  0  0  0  0  0  0  0  0  0  0
   -1.9217    2.0307   -0.0000 C   0  0  0  0  0  0  0  0  0  0  0  0
    1.8672   -1.9626   -0.0000 C   0  0  0  0  0  0  0  0  0  0  0  0
    2.6577    0.6678   -0.0000 C   0  0  0  0  0  0  0  0  0  0  0  0
   -2.7940    1.0631   -0.0000 C   0  0  0  0  0  0  0  0  0  0  0  0
   -1.9353    3.1483   -0.0000 C   0  0  0  0  0  0  0  0  0  0  0  0
    0.9268   -2.8212   -0.0000 F   0  0  0  0  0  0  0  0  0  0  0  0
    3.3800   -2.3987   -0.0000 C   0  0  0  0  0  0  0  0  0  0  0  0
    4.1705    0.2317   -0.0000 C   0  0  0  0  0  0  0  0  0  0  0  0
   -3.8434    2.4669   -0.0000 O   0  0  0  0  0  0  0  0  0  0  0  0
   -1.1857    1.6355   -0.0000 C   0  0  0  0  0  0  0  0  0  0  0  0
   -1.7581    1.7854   -0.0000 C   0  0  0  0  0  0  0  0  0  0  0  0
   -2.8076    3.8843   -0.0000 C   0  0  0  0  0  0  0  0  0  0  0  0
    4.5248   -1.2948   -0.0000 C   0  0  0  0  0  0  0  0  0  0  0  0
    0.4225    1.0903   -0.0000 C   0  0  0  0  0  0  0  0  0  0  0  0
   -1.1994    3.3800   -0.0000 C   0  0  0  0  0  0  0  0  0  0  0  0
   -2.8485    5.1654   -0.0000 C   0  0  0  0  0  0  0  0  0  0  0  0
    0.7769   -0.1090   -0.0000 O   0  0  0  0  0  0  0  0  0  0  0  0
    1.4447    2.4941   -0.0000 N   0  0  0  0  0  0  0  0  0  0  0  0
    0.4089    3.9115   -0.0000 C   0  0  0  0  0  0  0  0  0  0  0  0
    3.0256    2.5077   -0.0000 C   0  0  0  0  0  0  0  0  0  0  0  0
    0.7905    5.1382   -0.0000 O   0  0  0  0  0  0  0  0  0  0  0  0
    3.6798    1.0767   -0.0000 C   0  0  0  0  0  0  0  0  0  0  0  0
    3.9252    3.8161   -0.0000 C   0  0  0  0  0  0  0  0  0  0  0  0
    5.2472    0.9404   -0.0000 C   0  0  0  0  0  0  0  0  0  0  0  0
    5.4925    3.6798   -0.0000 C   0  0  0  0  0  0  0  0  0  0  0  0
    6.1467    2.2488   -0.0000 C   0  0  0  0  0  0  0  0  0  0  0  0
    5.9014   -0.4906   -0.0000 C   0  0  0  0  0  0  0  0  0  0  0  0
    7.7140    2.1125   -0.0000 C   0  0  0  0  0  0  0  0  0  0  0  0
    7.1553   -0.5997   -0.0000 F   0  0  0  0  0  0  0  0  0  0  0  0
    5.1518   -1.5128   -0.0000 F   0  0  0  0  0  0  0  0  0  0  0  0
    6.4193   -1.6355   -0.0000 F   0  0  0  0  0  0  0  0  0  0  0  0
    8.9679    2.0035   -0.0000 N   0  0  0  0  0  0  0  0  0  0  0  0
  1  2  2  0  0  0  0
  1  3  2  0  0  0  0
  1  4  1  0  0  0  0
  1  5  1  0  0  0  0
  6  4  1  1  0  0  0
  5  7  2  0  0  0  0
  5  8  1  0  0  0  0
  6  9  1  0  0  0  0
  6 10  1  0  0  0  0
  7 11  1  0  0  0  0
  7 12  1  0  0  0  0
  8 13  2  0  0  0  0
  9 14  1  0  0  0  0
  9 15  1  0  0  0  0
  9 16  1  6  0  0  0
 10 17  1  0  0  0  0
 12 18  2  0  0  0  0
 15 19  1  1  0  0  0
 15 20  1  0  0  0  0
 17 21  1  1  0  0  0
 19 22  2  0  0  0  0
 19 23  1  0  0  0  0
 20 24  1  1  0  0  0
 23 25  1  0  0  0  0
 24 26  2  0  0  0  0
 25 27  2  0  0  0  0
 25 28  1  0  0  0  0
 27 29  1  0  0  0  0
 28 30  2  0  0  0  0
 29 31  2  0  0  0  0
 29 32  1  0  0  0  0
 31 33  1  0  0  0  0
 32 34  1  0  0  0  0
 32 35  1  0  0  0  0
 32 36  1  0  0  0  0
 33 37  3  0  0  0  0
 13 18  1  0  0  0  0
 14 17  1  0  0  0  0
 17 20  1  0  0  0  0
 23 24  1  0  0  0  0
 30 31  1  0  0  0  0
M  END
>  <MolRegNo>
1966814

>  <m>
=

>  <Value>
1

>  <Unit>
nM

>  <Type>
Ki

>  <pValue>
9

>  <Ligand Efficiency>
0.33

>  <Binding Efficiency>
16.74

>  <Surface Efficiency>
7.72

>  <Assay Index>
965082

>  <Assay Category>


>  <Assay Organism>
Homo sapiens

>  <Target ID>
56

>  <Target Name>
Androgen Receptor

>  <Target Organism>
Homo sapiens

>  <Target Description>
Target is a single protein chain

>  <Sequence Accession>
P10275

>  <Reference>
ACS Med Chem Lett 6 (8), 908-912 (2015)

>  <Pubmed ID>
26288692

>  <DOI>
10.1021/acsmedchemlett.5b00173

$$$$
1966815
Actelion Java MolfileCreator 1.0

 36 40  0  0  0  0  0  0  0  0999 V2000
    0.0000   -0.0000   -0.0000 S   0  0  0  0  0  0  0  0  0  0  0  0
   -0.9354   -0.8541   -0.0000 O   0  0  0  0  0  0  0  0  0  0  0  0
   -1.2201    0.3796   -0.0000 O   0  0  0  0  0  0  0  0  0  0  0  0
   -0.3796    1.5590   -0.0000 N   0  0  0  0  0  0  0  0  0  0  0  0
    1.5048   -0.4338   -0.0000 C   0  0  0  0  0  0  0  0  0  0  0  0
   -1.9115    2.0199   -0.0000 C   0  0  0  0  0  0  0  0  0  0  0  0
    1.8573   -1.9522   -0.0000 C   0  0  0  0  0  0  0  0  0  0  0  0
    2.6435    0.6643   -0.0000 C   0  0  0  0  0  0  0  0  0  0  0  0
   -2.7791    1.0574   -0.0000 C   0  0  0  0  0  0  0  0  0  0  0  0
   -1.9250    3.1316   -0.0000 C   0  0  0  0  0  0  0  0  0  0  0  0
    3.3620   -2.3860   -0.0000 N   0  0  0  0  0  0  0  0  0  0  0  0
    4.1483    0.2305   -0.0000 C   0  0  0  0  0  0  0  0  0  0  0  0
   -3.8230    2.4537   -0.0000 O   0  0  0  0  0  0  0  0  0  0  0  0
   -1.1794    1.6268   -0.0000 C   0  0  0  0  0  0  0  0  0  0  0  0
   -1.7488    1.7759   -0.0000 C   0  0  0  0  0  0  0  0  0  0  0  0
   -2.7927    3.8636   -0.0000 C   0  0  0  0  0  0  0  0  0  0  0  0
    4.5008   -1.2879   -0.0000 C   0  0  0  0  0  0  0  0  0  0  0  0
    0.4203    1.0845   -0.0000 C   0  0  0  0  0  0  0  0  0  0  0  0
   -1.1930    3.3620   -0.0000 C   0  0  0  0  0  0  0  0  0  0  0  0
   -2.8333    5.1380   -0.0000 C   0  0  0  0  0  0  0  0  0  0  0  0
    0.7727   -0.1085   -0.0000 O   0  0  0  0  0  0  0  0  0  0  0  0
    1.4370    2.4809   -0.0000 N   0  0  0  0  0  0  0  0  0  0  0  0
    0.4067    3.8907   -0.0000 C   0  0  0  0  0  0  0  0  0  0  0  0
    3.0096    2.4944   -0.0000 C   0  0  0  0  0  0  0  0  0  0  0  0
    0.7863    5.1108   -0.0000 O   0  0  0  0  0  0  0  0  0  0  0  0
    3.6603    3.9450   -0.0000 C   0  0  0  0  0  0  0  0  0  0  0  0
    3.8907    1.2201   -0.0000 C   0  0  0  0  0  0  0  0  0  0  0  0
    5.2193    4.0941   -0.0000 C   0  0  0  0  0  0  0  0  0  0  0  0
    5.4498    1.3692   -0.0000 C   0  0  0  0  0  0  0  0  0  0  0  0
    6.1140    2.8062   -0.0000 C   0  0  0  0  0  0  0  0  0  0  0  0
    5.8836    5.5447   -0.0000 C   0  0  0  0  0  0  0  0  0  0  0  0
    7.6730    2.9553   -0.0000 C   0  0  0  0  0  0  0  0  0  0  0  0
    7.1308    5.6667   -0.0000 F   0  0  0  0  0  0  0  0  0  0  0  0
    5.1515    6.6021   -0.0000 F   0  0  0  0  0  0  0  0  0  0  0  0
    6.4123    6.7105   -0.0000 F   0  0  0  0  0  0  0  0  0  0  0  0
    8.9202    3.0774   -0.0000 N   0  0  0  0  0  0  0  0  0  0  0  0
  1  2  2  0  0  0  0
  1  3  2  0  0  0  0
  1  4  1  0  0  0  0
  1  5  1  0  0  0  0
  6  4  1  1  0  0  0
  5  7  2  0  0  0  0
  5  8  1  0  0  0  0
  6  9  1  0  0  0  0
  6 10  1  0  0  0  0
  7 11  1  0  0  0  0
  8 12  2  0  0  0  0
  9 13  1  0  0  0  0
  9 14  1  0  0  0  0
  9 15  1  6  0  0  0
 10 16  1  0  0  0  0
 11 17  2  0  0  0  0
 14 18  1  1  0  0  0
 14 19  1  0  0  0  0
 16 20  1  1  0  0  0
 18 21  2  0  0  0  0
 18 22  1  0  0  0  0
 19 23  1  1  0  0  0
 22 24  1  0  0  0  0
 23 25  2  0  0  0  0
 24 26  2  0  0  0  0
 24 27  1  0  0  0  0
 26 28  1  0  0  0  0
 27 29  2  0  0  0  0
 28 30  2  0  0  0  0
 28 31  1  0  0  0  0
 30 32  1  0  0  0  0
 31 33  1  0  0  0  0
 31 34  1  0  0  0  0
 31 35  1  0  0  0  0
 32 36  3  0  0  0  0
 12 17  1  0  0  0  0
 13 16  1  0  0  0  0
 16 19  1  0  0  0  0
 22 23  1  0  0  0  0
 29 30  1  0  0  0  0
M  END
>  <MolRegNo>
1966815

>  <m>
=

>  <Value>
2

>  <Unit>
nM

>  <Type>
Ki

>  <pValue>
8.7

>  <Ligand Efficiency>
0.33

>  <Binding Efficiency>
16.71

>  <Surface Efficiency>
6.72

>  <Assay Index>
965082

>  <Assay Category>


>  <Assay Organism>
Homo sapiens

>  <Target ID>
56

>  <Target Name>
Androgen Receptor

>  <Target Organism>
Homo sapiens

>  <Target Description>
Target is a single protein chain

>  <Sequence Accession>
P10275

>  <Reference>
ACS Med Chem Lett 6 (8), 908-912 (2015)

>  <Pubmed ID>
26288692

>  <DOI>
10.1021/acsmedchemlett.5b00173

$$$$
1966816
Actelion Java MolfileCreator 1.0

 32 35  0  0  0  0  0  0  0  0999 V2000
    0.0000   -0.0000   -0.0000 S   0  0  0  0  0  0  0  0  0  0  0  0
   -0.9485   -0.8660   -0.0000 O   0  0  0  0  0  0  0  0  0  0  0  0
   -1.2372    0.3849   -0.0000 O   0  0  0  0  0  0  0  0  0  0  0  0
   -0.3849    1.5808   -0.0000 N   0  0  0  0  0  0  0  0  0  0  0  0
    1.5259   -0.4399   -0.0000 C   0  0  0  0  0  0  0  0  0  0  0  0
   -1.9382    2.0482   -0.0000 C   0  0  0  0  0  0  0  0  0  0  0  0
    1.8145   -1.6771   -0.0000 C   0  0  0  0  0  0  0  0  0  0  0  0
   -2.8180    1.0722   -0.0000 C   0  0  0  0  0  0  0  0  0  0  0  0
   -1.9520    3.1754   -0.0000 C   0  0  0  0  0  0  0  0  0  0  0  0
   -3.8765    2.4881   -0.0000 O   0  0  0  0  0  0  0  0  0  0  0  0
   -1.1959    1.6496   -0.0000 C   0  0  0  0  0  0  0  0  0  0  0  0
   -3.9865    1.6496   -0.0000 C   0  0  0  0  0  0  0  0  0  0  0  0
   -2.8318    3.9177   -0.0000 C   0  0  0  0  0  0  0  0  0  0  0  0
    0.4261    1.0997   -0.0000 C   0  0  0  0  0  0  0  0  0  0  0  0
   -1.2097    3.4091   -0.0000 C   0  0  0  0  0  0  0  0  0  0  0  0
   -2.8730    5.2099   -0.0000 C   0  0  0  0  0  0  0  0  0  0  0  0
    0.7835   -0.1100   -0.0000 O   0  0  0  0  0  0  0  0  0  0  0  0
    1.4571    2.5156   -0.0000 N   0  0  0  0  0  0  0  0  0  0  0  0
    0.4124    3.9452   -0.0000 C   0  0  0  0  0  0  0  0  0  0  0  0
    3.0517    2.5293   -0.0000 C   0  0  0  0  0  0  0  0  0  0  0  0
    0.7973    5.1824   -0.0000 O   0  0  0  0  0  0  0  0  0  0  0  0
    3.7115    1.0860   -0.0000 C   0  0  0  0  0  0  0  0  0  0  0  0
    3.9590    3.8490   -0.0000 C   0  0  0  0  0  0  0  0  0  0  0  0
    5.2924    0.9485   -0.0000 C   0  0  0  0  0  0  0  0  0  0  0  0
    5.5398    3.7115   -0.0000 C   0  0  0  0  0  0  0  0  0  0  0  0
    6.1996    2.2682   -0.0000 C   0  0  0  0  0  0  0  0  0  0  0  0
    5.9522   -0.4949   -0.0000 C   0  0  0  0  0  0  0  0  0  0  0  0
    7.7805    2.1307   -0.0000 C   0  0  0  0  0  0  0  0  0  0  0  0
    7.2169   -0.6048   -0.0000 F   0  0  0  0  0  0  0  0  0  0  0  0
    5.1961   -1.5259   -0.0000 F   0  0  0  0  0  0  0  0  0  0  0  0
    6.4746   -1.6496   -0.0000 F   0  0  0  0  0  0  0  0  0  0  0  0
    9.0451    2.0207   -0.0000 N   0  0  0  0  0  0  0  0  0  0  0  0
  1  2  2  0  0  0  0
  1  3  2  0  0  0  0
  1  4  1  0  0  0  0
  1  5  1  0  0  0  0
  6  4  1  1  0  0  0
  5  7  1  0  0  0  0
  6  8  1  0  0  0  0
  6  9  1  0  0  0  0
  8 10  1  0  0  0  0
  8 11  1  0  0  0  0
  8 12  1  6  0  0  0
  9 13  1  0  0  0  0
 11 14  1  1  0  0  0
 11 15  1  0  0  0  0
 13 16  1  1  0  0  0
 14 17  2  0  0  0  0
 14 18  1  0  0  0  0
 15 19  1  1  0  0  0
 18 20  1  0  0  0  0
 19 21  2  0  0  0  0
 20 22  2  0  0  0  0
 20 23  1  0  0  0  0
 22 24  1  0  0  0  0
 23 25  2  0  0  0  0
 24 26  2  0  0  0  0
 24 27  1  0  0  0  0
 26 28  1  0  0  0  0
 27 29  1  0  0  0  0
 27 30  1  0  0  0  0
 27 31  1  0  0  0  0
 28 32  3  0  0  0  0
 10 13  1  0  0  0  0
 13 15  1  0  0  0  0
 18 19  1  0  0  0  0
 25 26  1  0  0  0  0
M  END
>  <MolRegNo>
1966816

>  <m>
=

>  <Value>
1.7

>  <Unit>
nM

>  <Type>
Ki

>  <pValue>
8.77

>  <Ligand Efficiency>
0.37

>  <Binding Efficiency>
18.6

>  <Surface Efficiency>
7.52

>  <Assay Index>
965082

>  <Assay Category>


>  <Assay Organism>
Homo sapiens

>  <Target ID>
56

>  <Target Name>
Androgen Receptor

>  <Target Organism>
Homo sapiens

>  <Target Description>
Target is a single protein chain

>  <Sequence Accession>
P10275

>  <Reference>
ACS Med Chem Lett 6 (8), 908-912 (2015)

>  <Pubmed ID>
26288692

>  <DOI>
10.1021/acsmedchemlett.5b00173

$$$$
2401004
Actelion Java MolfileCreator 1.0

 30 32  0  0  0  0  0  0  0  0999 V2000
    0.0000   -0.0000   -0.0000 Cl  0  0  0  0  0  0  0  0  0  0  0  0
   -1.4816    0.3082   -0.0000 C   0  0  0  0  0  0  0  0  0  0  0  0
   -2.4890   -0.8060   -0.0000 C   0  0  0  0  0  0  0  0  0  0  0  0
   -1.9675    1.7305   -0.0000 C   0  0  0  0  0  0  0  0  0  0  0  0
   -2.0268   -2.2164   -0.0000 F   0  0  0  0  0  0  0  0  0  0  0  0
   -3.9587   -0.4860   -0.0000 C   0  0  0  0  0  0  0  0  0  0  0  0
   -3.4372    2.0386   -0.0000 C   0  0  0  0  0  0  0  0  0  0  0  0
   -4.4328    0.9363   -0.0000 C   0  0  0  0  0  0  0  0  0  0  0  0
   -4.1958    3.3424   -0.0000 C   0  0  0  0  0  0  0  0  0  0  0  0
   -5.8196    1.5408   -0.0000 N   0  0  0  0  0  0  0  0  0  0  0  0
   -5.6655    3.0342   -0.0000 C   0  0  0  0  0  0  0  0  0  0  0  0
   -7.1233    0.8060   -0.0000 C   0  0  0  0  0  0  0  0  0  0  0  0
   -8.4390    1.5645   -0.0000 C   0  0  0  0  0  0  0  0  0  0  0  0
   -7.7160    2.8802   -0.0000 O   0  0  0  0  0  0  0  0  0  0  0  0
   -9.7427    0.8178   -0.0000 C   0  0  0  0  0  0  0  0  0  0  0  0
   -9.2094    2.8802   -0.0000 C   0  0  0  0  0  0  0  0  0  0  0  0
   -9.7546   -0.6637   -0.0000 O   0  0  0  0  0  0  0  0  0  0  0  0
  -11.0584    1.5764   -0.0000 N   0  0  0  0  0  0  0  0  0  0  0  0
  -12.3621    0.8297   -0.0000 C   0  0  0  0  0  0  0  0  0  0  0  0
  -12.3740   -0.6637   -0.0000 C   0  0  0  0  0  0  0  0  0  0  0  0
  -13.6659    1.5882   -0.0000 C   0  0  0  0  0  0  0  0  0  0  0  0
  -13.6896   -1.3986   -0.0000 C   0  0  0  0  0  0  0  0  0  0  0  0
  -14.9697    0.8534   -0.0000 C   0  0  0  0  0  0  0  0  0  0  0  0
  -14.9934   -0.6400   -0.0000 C   0  0  0  0  0  0  0  0  0  0  0  0
  -13.7015   -2.8802   -0.0000 C   0  0  0  0  0  0  0  0  0  0  0  0
  -16.2972   -1.3749   -0.0000 C   0  0  0  0  0  0  0  0  0  0  0  0
  -15.0052   -3.6150   -0.0000 F   0  0  0  0  0  0  0  0  0  0  0  0
  -12.4214   -3.6150   -0.0000 F   0  0  0  0  0  0  0  0  0  0  0  0
  -13.7252   -4.3617   -0.0000 F   0  0  0  0  0  0  0  0  0  0  0  0
  -17.6009   -2.1097   -0.0000 N   0  0  0  0  0  0  0  0  0  0  0  0
  1  2  1  0  0  0  0
  2  3  2  0  0  0  0
  2  4  1  0  0  0  0
  3  5  1  0  0  0  0
  3  6  1  0  0  0  0
  4  7  2  0  0  0  0
  6  8  2  0  0  0  0
  7  9  1  0  0  0  0
  8 10  1  0  0  0  0
  9 11  1  0  0  0  0
 10 12  1  0  0  0  0
 12 13  1  0  0  0  0
 13 14  1  1  0  0  0
 13 15  1  0  0  0  0
 13 16  1  0  0  0  0
 15 17  2  0  0  0  0
 15 18  1  0  0  0  0
 18 19  1  0  0  0  0
 19 20  2  0  0  0  0
 19 21  1  0  0  0  0
 20 22  1  0  0  0  0
 21 23  2  0  0  0  0
 22 24  2  0  0  0  0
 22 25  1  0  0  0  0
 24 26  1  0  0  0  0
 25 27  1  0  0  0  0
 25 28  1  0  0  0  0
 25 29  1  0  0  0  0
 26 30  3  0  0  0  0
  7  8  1  0  0  0  0
 10 11  1  0  0  0  0
 23 24  1  0  0  0  0
M  END
>  <MolRegNo>
2401004

>  <m>
=

>  <Value>
68

>  <Unit>
nM

>  <Type>
Ki

>  <pValue>
7.17

>  <Ligand Efficiency>
0.33

>  <Binding Efficiency>
16.22

>  <Surface Efficiency>
9.39

>  <Assay Index>
1325509

>  <Assay Category>


>  <Assay Organism>
Homo sapiens

>  <Target ID>
56

>  <Target Name>
Androgen Receptor

>  <Target Organism>
Homo sapiens

>  <Target Description>
Target is a single protein chain

>  <Sequence Accession>
P10275

>  <Reference>
J Med Chem 62 (2), 491-511 (2019)

>  <Pubmed ID>
30525603

>  <DOI>
10.1021/acs.jmedchem.8b00973

$$$$
2346711
Actelion Java MolfileCreator 1.0

 34 37  0  0  0  0  0  0  0  0999 V2000
    0.0000   -0.0000   -0.0000 F   0  0  0  0  0  0  0  0  0  0  0  0
    1.2852    0.7616   -0.0000 C   0  0  0  0  0  0  0  0  0  0  0  0
    2.5704    0.0238   -0.0000 F   0  0  0  0  0  0  0  0  0  0  0  0
    1.2614   -0.7259   -0.0000 F   0  0  0  0  0  0  0  0  0  0  0  0
    1.2733    2.2729   -0.0000 C   0  0  0  0  0  0  0  0  0  0  0  0
   -0.0357    3.0345   -0.0000 C   0  0  0  0  0  0  0  0  0  0  0  0
    2.5704    3.0345   -0.0000 C   0  0  0  0  0  0  0  0  0  0  0  0
   -1.3447    2.2967   -0.0000 C   0  0  0  0  0  0  0  0  0  0  0  0
   -0.0476    4.5577   -0.0000 C   0  0  0  0  0  0  0  0  0  0  0  0
    2.5585    4.5577   -0.0000 C   0  0  0  0  0  0  0  0  0  0  0  0
   -2.6537    1.5589   -0.0000 N   0  0  0  0  0  0  0  0  0  0  0  0
    1.2376    5.3194   -0.0000 C   0  0  0  0  0  0  0  0  0  0  0  0
    3.8437    5.3194   -0.0000 N   0  0  0  0  0  0  0  0  0  0  0  0
    5.1289    4.5815   -0.0000 C   0  0  0  0  0  0  0  0  0  0  0  0
    5.1170    3.0940   -0.0000 O   0  0  0  0  0  0  0  0  0  0  0  0
    6.4142    5.3551   -0.0000 C   0  0  0  0  0  0  0  0  0  0  0  0
    7.1401    6.6760   -0.0000 O   0  0  0  0  0  0  0  0  0  0  0  0
    7.7113    4.6172   -0.0000 C   0  0  0  0  0  0  0  0  0  0  0  0
    5.6407    6.6760   -0.0000 C   0  0  0  0  0  0  0  0  0  0  0  0
    8.9965    5.3789   -0.0000 N   0  0  0  0  0  0  0  0  0  0  0  0
   10.3650    4.7957   -0.0000 C   0  0  0  0  0  0  0  0  0  0  0  0
    9.1393    6.8902   -0.0000 C   0  0  0  0  0  0  0  0  0  0  0  0
   11.3527    5.9263   -0.0000 C   0  0  0  0  0  0  0  0  0  0  0  0
   10.8172    3.3915   -0.0000 C   0  0  0  0  0  0  0  0  0  0  0  0
   10.5911    7.2234   -0.0000 C   0  0  0  0  0  0  0  0  0  0  0  0
   12.8045    5.6407   -0.0000 C   0  0  0  0  0  0  0  0  0  0  0  0
   12.2690    3.0940   -0.0000 C   0  0  0  0  0  0  0  0  0  0  0  0
   13.7922    6.7712   -0.0000 C   0  0  0  0  0  0  0  0  0  0  0  0
   13.2686    4.2364   -0.0000 C   0  0  0  0  0  0  0  0  0  0  0  0
   15.2440    6.4737   -0.0000 C   0  0  0  0  0  0  0  0  0  0  0  0
   13.2924    8.1992   -0.0000 C   0  0  0  0  0  0  0  0  0  0  0  0
   16.2318    7.6042   -0.0000 C   0  0  0  0  0  0  0  0  0  0  0  0
   14.2682    9.3297   -0.0000 C   0  0  0  0  0  0  0  0  0  0  0  0
   15.7438    9.0441   -0.0000 C   0  0  0  0  0  0  0  0  0  0  0  0
  1  2  1  0  0  0  0
  2  3  1  0  0  0  0
  2  4  1  0  0  0  0
  2  5  1  0  0  0  0
  5  6  2  0  0  0  0
  5  7  1  0  0  0  0
  6  8  1  0  0  0  0
  6  9  1  0  0  0  0
  7 10  2  0  0  0  0
  8 11  3  0  0  0  0
  9 12  2  0  0  0  0
 10 13  1  0  0  0  0
 13 14  1  0  0  0  0
 14 15  2  0  0  0  0
 14 16  1  0  0  0  0
 16 17  1  1  0  0  0
 16 18  1  0  0  0  0
 16 19  1  0  0  0  0
 18 20  1  0  0  0  0
 20 21  1  0  0  0  0
 20 22  1  0  0  0  0
 21 23  2  0  0  0  0
 21 24  1  0  0  0  0
 22 25  2  0  0  0  0
 23 26  1  0  0  0  0
 24 27  2  0  0  0  0
 26 28  1  0  0  0  0
 26 29  2  0  0  0  0
 28 30  2  0  0  0  0
 28 31  1  0  0  0  0
 30 32  1  0  0  0  0
 31 33  2  0  0  0  0
 32 34  2  0  0  0  0
 10 12  1  0  0  0  0
 23 25  1  0  0  0  0
 27 29  1  0  0  0  0
 33 34  1  0  0  0  0
M  END
>  <MolRegNo>
2346711

>  <m>
=

>  <Value>
84

>  <Unit>
nM

>  <Type>
Ki

>  <pValue>
7.08

>  <Ligand Efficiency>
0.28

>  <Binding Efficiency>
15.27

>  <Surface Efficiency>
9.07

>  <Assay Index>
1325509

>  <Assay Category>


>  <Assay Organism>
Homo sapiens

>  <Target ID>
56

>  <Target Name>
Androgen Receptor

>  <Target Organism>
Homo sapiens

>  <Target Description>
Target is a single protein chain

>  <Sequence Accession>
P10275

>  <Reference>
J Med Chem 62 (2), 491-511 (2019)

>  <Pubmed ID>
30525603

>  <DOI>
10.1021/acs.jmedchem.8b00973

$$$$
2335156
Actelion Java MolfileCreator 1.0

 28 30  0  0  0  0  0  0  0  0999 V2000
    0.0000   -0.0000   -0.0000 Cl  0  0  0  0  0  0  0  0  0  0  0  0
   -0.1650   -1.4731   -0.0000 C   0  0  0  0  0  0  0  0  0  0  0  0
    0.9900   -2.4042   -0.0000 C   0  0  0  0  0  0  0  0  0  0  0  0
   -1.5792   -2.0035   -0.0000 C   0  0  0  0  0  0  0  0  0  0  0  0
    2.3453   -1.7796   -0.0000 C   0  0  0  0  0  0  0  0  0  0  0  0
    0.7425   -3.8773   -0.0000 C   0  0  0  0  0  0  0  0  0  0  0  0
   -1.8267   -3.4766   -0.0000 C   0  0  0  0  0  0  0  0  0  0  0  0
    3.7006   -1.1549   -0.0000 N   0  0  0  0  0  0  0  0  0  0  0  0
   -0.6718   -4.4077   -0.0000 C   0  0  0  0  0  0  0  0  0  0  0  0
   -3.2409   -4.0070   -0.0000 C   0  0  0  0  0  0  0  0  0  0  0  0
   -4.5137   -3.1820   -0.0000 N   0  0  0  0  0  0  0  0  0  0  0  0
   -3.6416   -5.4448   -0.0000 C   0  0  0  0  0  0  0  0  0  0  0  0
   -5.6922   -4.1130   -0.0000 N   0  0  0  0  0  0  0  0  0  0  0  0
   -5.1501   -5.5155   -0.0000 C   0  0  0  0  0  0  0  0  0  0  0  0
   -7.1065   -3.5591   -0.0000 C   0  0  0  0  0  0  0  0  0  0  0  0
   -8.2850   -4.4902   -0.0000 C   0  0  0  0  0  0  0  0  0  0  0  0
   -9.6992   -3.9363   -0.0000 N   0  0  0  0  0  0  0  0  0  0  0  0
   -7.9904   -5.9280   -0.0000 C   0  0  0  0  0  0  0  0  0  0  0  0
  -10.8777   -4.8673   -0.0000 C   0  0  0  0  0  0  0  0  0  0  0  0
  -10.7245   -6.2815   -0.0000 O   0  0  0  0  0  0  0  0  0  0  0  0
  -12.2920   -4.3134   -0.0000 C   0  0  0  0  0  0  0  0  0  0  0  0
  -12.6927   -2.8520   -0.0000 N   0  0  0  0  0  0  0  0  0  0  0  0
  -13.5648   -5.1148   -0.0000 C   0  0  0  0  0  0  0  0  0  0  0  0
  -14.2012   -2.7577   -0.0000 N   0  0  0  0  0  0  0  0  0  0  0  0
  -14.7433   -4.1602   -0.0000 C   0  0  0  0  0  0  0  0  0  0  0  0
  -16.1575   -4.6905   -0.0000 C   0  0  0  0  0  0  0  0  0  0  0  0
  -16.4050   -6.1637   -0.0000 O   0  0  0  0  0  0  0  0  0  0  0  0
  -17.3360   -3.7359   -0.0000 C   0  0  0  0  0  0  0  0  0  0  0  0
  1  2  1  0  0  0  0
  2  3  2  0  0  0  0
  2  4  1  0  0  0  0
  3  5  1  0  0  0  0
  3  6  1  0  0  0  0
  4  7  2  0  0  0  0
  5  8  3  0  0  0  0
  6  9  2  0  0  0  0
  7 10  1  0  0  0  0
 10 11  2  0  0  0  0
 10 12  1  0  0  0  0
 11 13  1  0  0  0  0
 12 14  2  0  0  0  0
 13 15  1  0  0  0  0
 15 16  1  0  0  0  0
 16 17  1  6  0  0  0
 16 18  1  0  0  0  0
 17 19  1  0  0  0  0
 19 20  2  0  0  0  0
 19 21  1  0  0  0  0
 21 22  2  0  0  0  0
 21 23  1  0  0  0  0
 22 24  1  0  0  0  0
 23 25  2  0  0  0  0
 25 26  1  0  0  0  0
 26 27  1  0  0  0  0
 26 28  1  0  0  0  0
  7  9  1  0  0  0  0
 13 14  1  0  0  0  0
 24 25  1  0  0  0  0
M  END
>  <MolRegNo>
2335156

>  <m>
=

>  <Value>
11

>  <Unit>
nM

>  <Type>
Ki

>  <pValue>
7.96

>  <Ligand Efficiency>
0.39

>  <Binding Efficiency>
19.95

>  <Surface Efficiency>
6.65

>  <Assay Index>
1410796

>  <Assay Category>


>  <Assay Organism>
Homo sapiens

>  <Target ID>
56

>  <Target Name>
Androgen Receptor

>  <Target Organism>
Homo sapiens

>  <Target Description>
Target is a single protein chain

>  <Sequence Accession>
P10275

>  <Reference>


>  <Pubmed ID>
32911308

>  <DOI>
10.1016/j.ejmech.2020.112667

$$$$
517188
Actelion Java MolfileCreator 1.0

 25 26  0  0  0  0  0  0  0  0999 V2000
    0.0000   -0.0000   -0.0000 I   0  0  0  0  0  0  0  0  0  0  0  0
    1.2953    0.7725   -0.0000 C   0  0  0  0  0  0  0  0  0  0  0  0
    1.2835    2.2936   -0.0000 C   0  0  0  0  0  0  0  0  0  0  0  0
    2.5907    0.0238   -0.0000 C   0  0  0  0  0  0  0  0  0  0  0  0
   -0.0357    3.0542   -0.0000 C   0  0  0  0  0  0  0  0  0  0  0  0
    2.5669    3.0542   -0.0000 C   0  0  0  0  0  0  0  0  0  0  0  0
    3.8741    0.7962   -0.0000 C   0  0  0  0  0  0  0  0  0  0  0  0
   -1.3548    3.8266   -0.0000 N   0  0  0  0  0  0  0  0  0  0  0  0
    3.8504    2.3292   -0.0000 C   0  0  0  0  0  0  0  0  0  0  0  0
    5.1695    0.0594   -0.0000 N   0  0  0  0  0  0  0  0  0  0  0  0
    6.4648    0.8319   -0.0000 C   0  0  0  0  0  0  0  0  0  0  0  0
    6.4529    2.3530   -0.0000 O   0  0  0  0  0  0  0  0  0  0  0  0
    7.7602    0.0951   -0.0000 C   0  0  0  0  0  0  0  0  0  0  0  0
    7.0115   -1.2003   -0.0000 O   0  0  0  0  0  0  0  0  0  0  0  0
    9.0436   -0.6417   -0.0000 C   0  0  0  0  0  0  0  0  0  0  0  0
    8.5088    1.4142   -0.0000 C   0  0  0  0  0  0  0  0  0  0  0  0
   10.3390    0.1188   -0.0000 O   0  0  0  0  0  0  0  0  0  0  0  0
   11.6343   -0.6180   -0.0000 C   0  0  0  0  0  0  0  0  0  0  0  0
   11.6224   -2.1034   -0.0000 C   0  0  0  0  0  0  0  0  0  0  0  0
   12.9059    0.1545   -0.0000 C   0  0  0  0  0  0  0  0  0  0  0  0
   12.9059   -2.8521   -0.0000 C   0  0  0  0  0  0  0  0  0  0  0  0
   14.2012   -0.5704   -0.0000 C   0  0  0  0  0  0  0  0  0  0  0  0
   14.2012   -2.0797   -0.0000 C   0  0  0  0  0  0  0  0  0  0  0  0
   15.4965   -2.8165   -0.0000 C   0  0  0  0  0  0  0  0  0  0  0  0
   16.7800   -3.5533   -0.0000 N   0  0  0  0  0  0  0  0  0  0  0  0
  1  2  1  0  0  0  0
  2  3  2  0  0  0  0
  2  4  1  0  0  0  0
  3  5  1  0  0  0  0
  3  6  1  0  0  0  0
  4  7  2  0  0  0  0
  5  8  3  0  0  0  0
  6  9  2  0  0  0  0
  7 10  1  0  0  0  0
 10 11  1  0  0  0  0
 11 12  2  0  0  0  0
 13 11  1  6  0  0  0
 13 14  1  0  0  0  0
 13 15  1  0  0  0  0
 13 16  1  0  0  0  0
 15 17  1  0  0  0  0
 17 18  1  0  0  0  0
 18 19  2  0  0  0  0
 18 20  1  0  0  0  0
 19 21  1  0  0  0  0
 20 22  2  0  0  0  0
 21 23  2  0  0  0  0
 23 24  1  0  0  0  0
 24 25  3  0  0  0  0
  7  9  1  0  0  0  0
 22 23  1  0  0  0  0
M  END
>  <MolRegNo>
517188

>  <m>
=

>  <Value>
0.54

>  <Unit>
nM

>  <Type>
Ki

>  <pValue>
9.27

>  <Ligand Efficiency>
0.51

>  <Binding Efficiency>
20.72

>  <Surface Efficiency>
8.73

>  <Assay Index>
1554748

>  <Assay Category>


>  <Assay Organism>
Homo sapiens

>  <Target ID>
56

>  <Target Name>
Androgen Receptor

>  <Target Organism>
Homo sapiens

>  <Target Description>
Target is a single protein chain

>  <Sequence Accession>
P10275

>  <Reference>


>  <Pubmed ID>
35063736

>  <DOI>
10.1016/j.ejmech.2022.114119

$$$$
2501838
Actelion Java MolfileCreator 1.0

 28 29  0  0  1  0  0  0  0  0999 V2000
    0.0000   -0.0000   -0.0000 F   0  0  0  0  0  0  0  0  0  0  0  0
    0.7454    1.3133   -0.0000 C   0  0  0  0  0  0  0  0  0  0  0  0
    2.0350    0.5679   -0.0000 F   0  0  0  0  0  0  0  0  0  0  0  0
   -0.5679    2.0823   -0.0000 F   0  0  0  0  0  0  0  0  0  0  0  0
    1.4908    2.6266   -0.0000 C   0  0  0  0  0  0  0  0  0  0  0  0
    0.7336    3.9399   -0.0000 C   0  0  0  0  0  0  0  0  0  0  0  0
    2.9815    2.6384   -0.0000 C   0  0  0  0  0  0  0  0  0  0  0  0
   -0.7809    3.9517   -0.0000 C   0  0  0  0  0  0  0  0  0  0  0  0
    1.4789    5.2532   -0.0000 C   0  0  0  0  0  0  0  0  0  0  0  0
    3.7269    3.9517   -0.0000 C   0  0  0  0  0  0  0  0  0  0  0  0
   -2.2953    3.9636   -0.0000 N   0  0  0  0  0  0  0  0  0  0  0  0
    2.9697    5.2650   -0.0000 C   0  0  0  0  0  0  0  0  0  0  0  0
    5.2177    3.9636   -0.0000 N   0  0  0  0  0  0  0  0  0  0  0  0
    5.9631    2.6739   -0.0000 C   0  0  0  0  0  0  0  0  0  0  0  0
    5.2059    1.3843   -0.0000 O   0  0  0  0  0  0  0  0  0  0  0  0
    7.4539    2.6858   -0.0000 C   0  0  0  0  0  0  0  0  0  0  0  0
    7.4420    1.1950   -0.0000 O   0  0  0  0  0  0  0  0  0  0  0  0
    8.9446    2.6976   -0.0000 C   0  0  0  0  0  0  0  0  0  0  0  0
    7.4420    4.2002   -0.0000 C   0  0  0  0  0  0  0  0  0  0  0  0
    9.6900    1.4079   -0.0000 O   0  0  0  0  0  0  0  0  0  0  0  0
   11.1808    1.4198   -0.0000 C   0  0  0  0  0  0  0  0  0  0  0  0
   11.9262    0.1301   -0.0000 C   0  0  0  0  0  0  0  0  0  0  0  0
   11.9262    2.7331   -0.0000 C   0  0  0  0  0  0  0  0  0  0  0  0
   13.4169    0.1420   -0.0000 C   0  0  0  0  0  0  0  0  0  0  0  0
   13.4169    2.7449   -0.0000 C   0  0  0  0  0  0  0  0  0  0  0  0
   14.1623    1.4553   -0.0000 C   0  0  0  0  0  0  0  0  0  0  0  0
   15.6531    1.4671   -0.0000 C   0  0  0  0  0  0  0  0  0  0  0  0
   17.1439    1.4789   -0.0000 N   0  0  0  0  0  0  0  0  0  0  0  0
  1  2  1  0  0  0  0
  2  3  1  0  0  0  0
  2  4  1  0  0  0  0
  2  5  1  0  0  0  0
  5  6  2  0  0  0  0
  5  7  1  0  0  0  0
  6  8  1  0  0  0  0
  6  9  1  0  0  0  0
  7 10  2  0  0  0  0
  8 11  3  0  0  0  0
  9 12  2  0  0  0  0
 10 13  1  0  0  0  0
 13 14  1  0  0  0  0
 14 15  2  0  0  0  0
 16 14  1  1  0  0  0
 16 17  1  0  0  0  0
 16 18  1  0  0  0  0
 16 19  1  0  0  0  0
 18 20  1  0  0  0  0
 20 21  1  0  0  0  0
 21 22  2  0  0  0  0
 21 23  1  0  0  0  0
 22 24  1  0  0  0  0
 23 25  2  0  0  0  0
 24 26  2  0  0  0  0
 26 27  1  0  0  0  0
 27 28  3  0  0  0  0
 10 12  1  0  0  0  0
 25 26  1  0  0  0  0
M  END
>  <MolRegNo>
2501838

>  <m>
=

>  <Value>
4

>  <Unit>
nM

>  <Type>
Ki

>  <pValue>
8.4

>  <Ligand Efficiency>
0.41

>  <Binding Efficiency>
21.57

>  <Surface Efficiency>
7.91

>  <Assay Index>
1554748

>  <Assay Category>


>  <Assay Organism>
Homo sapiens

>  <Target ID>
56

>  <Target Name>
Androgen Receptor

>  <Target Organism>
Homo sapiens

>  <Target Description>
Target is a single protein chain

>  <Sequence Accession>
P10275

>  <Reference>


>  <Pubmed ID>
35063736

>  <DOI>
10.1016/j.ejmech.2022.114119

$$$$
2741928
Actelion Java MolfileCreator 1.0

 23 25  0  0  0  0  0  0  0  0999 V2000
    0.0000   -0.0000   -0.0000 Cl  0  0  0  0  0  0  0  0  0  0  0  0
   -0.0119   -1.4951   -0.0000 C   0  0  0  0  0  0  0  0  0  0  0  0
    1.2815   -2.2307   -0.0000 C   0  0  0  0  0  0  0  0  0  0  0  0
   -1.3289   -2.2307   -0.0000 C   0  0  0  0  0  0  0  0  0  0  0  0
    1.2696   -3.7258   -0.0000 C   0  0  0  0  0  0  0  0  0  0  0  0
    2.5748   -1.4713   -0.0000 C   0  0  0  0  0  0  0  0  0  0  0  0
   -1.3408   -3.7258   -0.0000 C   0  0  0  0  0  0  0  0  0  0  0  0
   -0.0475   -4.4614   -0.0000 N   0  0  0  0  0  0  0  0  0  0  0  0
    2.5629   -4.4733   -0.0000 C   0  0  0  0  0  0  0  0  0  0  0  0
    3.8682   -2.2070   -0.0000 C   0  0  0  0  0  0  0  0  0  0  0  0
    2.8715    0.0119   -0.0000 C   0  0  0  0  0  0  0  0  0  0  0  0
   -2.6579   -4.4614   -0.0000 O   0  0  0  0  0  0  0  0  0  0  0  0
    3.8563   -3.7020   -0.0000 C   0  0  0  0  0  0  0  0  0  0  0  0
    4.9716   -1.1865   -0.0000 N   0  0  0  0  0  0  0  0  0  0  0  0
    4.3546    0.1780   -0.0000 C   0  0  0  0  0  0  0  0  0  0  0  0
    1.7917    1.0916   -0.0000 C   0  0  0  0  0  0  0  0  0  0  0  0
    6.2650   -1.9222   -0.0000 C   0  0  0  0  0  0  0  0  0  0  0  0
    5.0903    1.4951   -0.0000 C   0  0  0  0  0  0  0  0  0  0  0  0
    7.5583   -1.1628   -0.0000 C   0  0  0  0  0  0  0  0  0  0  0  0
    6.5854    1.5069   -0.0000 C   0  0  0  0  0  0  0  0  0  0  0  0
    8.8517   -1.8985   -0.0000 F   0  0  0  0  0  0  0  0  0  0  0  0
    7.5465    0.3560   -0.0000 F   0  0  0  0  0  0  0  0  0  0  0  0
    8.8517   -0.4034   -0.0000 F   0  0  0  0  0  0  0  0  0  0  0  0
  1  2  1  0  0  0  0
  2  3  1  0  0  0  0
  2  4  2  0  0  0  0
  3  5  2  0  0  0  0
  3  6  1  0  0  0  0
  4  7  1  0  0  0  0
  5  8  1  0  0  0  0
  5  9  1  0  0  0  0
  6 10  2  0  0  0  0
  6 11  1  0  0  0  0
  7 12  2  0  0  0  0
  9 13  2  0  0  0  0
 10 14  1  0  0  0  0
 11 15  2  0  0  0  0
 11 16  1  0  0  0  0
 14 17  1  0  0  0  0
 15 18  1  0  0  0  0
 17 19  1  0  0  0  0
 18 20  1  0  0  0  0
 19 21  1  0  0  0  0
 19 22  1  0  0  0  0
 19 23  1  0  0  0  0
  7  8  1  0  0  0  0
 10 13  1  0  0  0  0
 14 15  1  0  0  0  0
M  END
>  <MolRegNo>
2741928

>  <m>
=

>  <Value>
0.9

>  <Unit>
nM

>  <Type>
Ki

>  <pValue>
9.05

>  <Ligand Efficiency>
0.54

>  <Binding Efficiency>
26.39

>  <Surface Efficiency>
23.94

>  <Assay Index>
1554759

>  <Assay Category>


>  <Assay Organism>
Homo sapiens

>  <Target ID>
56

>  <Target Name>
Androgen Receptor

>  <Target Organism>
Homo sapiens

>  <Target Description>
Target is a single protein chain

>  <Sequence Accession>
P10275

>  <Reference>


>  <Pubmed ID>
35063736

>  <DOI>
10.1016/j.ejmech.2022.114119

$$$$
2759147
Actelion Java MolfileCreator 1.0

 31 34  0  0  0  0  0  0  0  0999 V2000
    0.0000   -0.0000   -0.0000 F   0  0  0  0  0  0  0  0  0  0  0  0
   -0.0119   -1.4946   -0.0000 C   0  0  0  0  0  0  0  0  0  0  0  0
   -1.3286   -0.7355   -0.0000 F   0  0  0  0  0  0  0  0  0  0  0  0
    1.2811   -0.7355   -0.0000 F   0  0  0  0  0  0  0  0  0  0  0  0
   -0.0237   -2.9893   -0.0000 C   0  0  0  0  0  0  0  0  0  0  0  0
    1.2692   -3.7247   -0.0000 C   0  0  0  0  0  0  0  0  0  0  0  0
   -1.3404   -3.7247   -0.0000 C   0  0  0  0  0  0  0  0  0  0  0  0
    2.5622   -2.9655   -0.0000 C   0  0  0  0  0  0  0  0  0  0  0  0
    1.2574   -5.2193   -0.0000 C   0  0  0  0  0  0  0  0  0  0  0  0
   -1.3523   -5.2193   -0.0000 C   0  0  0  0  0  0  0  0  0  0  0  0
    2.5504   -1.4472   -0.0000 C   0  0  0  0  0  0  0  0  0  0  0  0
    3.8552   -3.7010   -0.0000 C   0  0  0  0  0  0  0  0  0  0  0  0
   -0.0593   -5.9548   -0.0000 N   0  0  0  0  0  0  0  0  0  0  0  0
    2.5504   -5.9548   -0.0000 C   0  0  0  0  0  0  0  0  0  0  0  0
   -2.6690   -5.9548   -0.0000 O   0  0  0  0  0  0  0  0  0  0  0  0
    1.7912   -0.1305   -0.0000 O   0  0  0  0  0  0  0  0  0  0  0  0
    3.8433   -0.6880   -0.0000 O   0  0  0  0  0  0  0  0  0  0  0  0
    5.1482   -2.9418   -0.0000 C   0  0  0  0  0  0  0  0  0  0  0  0
    3.8433   -5.1956   -0.0000 C   0  0  0  0  0  0  0  0  0  0  0  0
    5.1363   -1.4235   -0.0000 C   0  0  0  0  0  0  0  0  0  0  0  0
    6.4411   -3.6891   -0.0000 C   0  0  0  0  0  0  0  0  0  0  0  0
    6.4293   -0.6643   -0.0000 C   0  0  0  0  0  0  0  0  0  0  0  0
    6.4293   -5.1837   -0.0000 C   0  0  0  0  0  0  0  0  0  0  0  0
    7.7341   -2.9181   -0.0000 C   0  0  0  0  0  0  0  0  0  0  0  0
    7.7222   -1.3997   -0.0000 C   0  0  0  0  0  0  0  0  0  0  0  0
    5.1126   -5.9311   -0.0000 O   0  0  0  0  0  0  0  0  0  0  0  0
    7.7222   -5.9311   -0.0000 O   0  0  0  0  0  0  0  0  0  0  0  0
    7.7104   -7.4257   -0.0000 C   0  0  0  0  0  0  0  0  0  0  0  0
    9.0034   -8.1611   -0.0000 C   0  0  0  0  0  0  0  0  0  0  0  0
    6.3937   -8.1611   -0.0000 C   0  0  0  0  0  0  0  0  0  0  0  0
    7.6985   -8.9203   -0.0000 C   0  0  0  0  0  0  0  0  0  0  0  0
  1  2  1  0  0  0  0
  2  3  1  0  0  0  0
  2  4  1  0  0  0  0
  2  5  1  0  0  0  0
  5  6  1  0  0  0  0
  5  7  2  0  0  0  0
  6  8  2  0  0  0  0
  6  9  1  0  0  0  0
  7 10  1  0  0  0  0
  8 11  1  0  0  0  0
  8 12  1  0  0  0  0
  9 13  1  0  0  0  0
  9 14  2  0  0  0  0
 10 15  2  0  0  0  0
 11 16  2  0  0  0  0
 11 17  1  0  0  0  0
 12 18  1  0  0  0  0
 12 19  2  0  0  0  0
 17 20  1  0  0  0  0
 18 21  1  0  0  0  0
 20 22  1  0  0  0  0
 21 23  1  0  0  0  0
 21 24  2  0  0  0  0
 22 25  2  0  0  0  0
 23 26  2  0  0  0  0
 23 27  1  0  0  0  0
 27 28  1  0  0  0  0
 28 29  1  0  0  0  0
 28 30  1  0  0  0  0
 28 31  1  0  0  0  0
 10 13  1  0  0  0  0
 14 19  1  0  0  0  0
 18 20  2  0  0  0  0
 24 25  1  0  0  0  0
M  END
>  <MolRegNo>
2759147

>  <m>
=

>  <Value>
8.7

>  <Unit>
nM

>  <Type>
Ki

>  <pValue>
8.06

>  <Ligand Efficiency>
0.36

>  <Binding Efficiency>
18.69

>  <Surface Efficiency>
9.02

>  <Assay Index>
1567459

>  <Assay Category>


>  <Assay Organism>
Homo sapiens

>  <Target ID>
56

>  <Target Name>
Androgen Receptor

>  <Target Organism>
Homo sapiens

>  <Target Description>
Target is a single protein chain

>  <Sequence Accession>
P10275

>  <Reference>
J Med Chem 65 (13.0), 8772-8797 (2022)

>  <Pubmed ID>
35786895

>  <DOI>
10.1021/acs.jmedchem.2c00716

$$$$
2741818
Actelion Java MolfileCreator 1.0

 23 24  0  0  0  0  0  0  0  0999 V2000
    0.0000   -0.0000   -0.0000 F   0  0  0  0  0  0  0  0  0  0  0  0
   -0.7540    1.3077   -0.0000 C   0  0  0  0  0  0  0  0  0  0  0  0
   -2.2620    1.3195   -0.0000 F   0  0  0  0  0  0  0  0  0  0  0  0
   -1.5080    0.0236   -0.0000 F   0  0  0  0  0  0  0  0  0  0  0  0
   -0.0236    2.6155   -0.0000 C   0  0  0  0  0  0  0  0  0  0  0  0
   -0.7893    3.9232   -0.0000 C   0  0  0  0  0  0  0  0  0  0  0  0
    1.4609    2.6272   -0.0000 C   0  0  0  0  0  0  0  0  0  0  0  0
   -2.2974    3.9350   -0.0000 C   0  0  0  0  0  0  0  0  0  0  0  0
   -0.0471    5.2309   -0.0000 C   0  0  0  0  0  0  0  0  0  0  0  0
    2.1913    3.9350   -0.0000 C   0  0  0  0  0  0  0  0  0  0  0  0
   -3.8054    3.9467   -0.0000 N   0  0  0  0  0  0  0  0  0  0  0  0
    1.4373    5.2427   -0.0000 C   0  0  0  0  0  0  0  0  0  0  0  0
    3.6758    3.9467   -0.0000 N   0  0  0  0  0  0  0  0  0  0  0  0
    4.5476    5.1720   -0.0000 C   0  0  0  0  0  0  0  0  0  0  0  0
    4.5476    2.7451   -0.0000 C   0  0  0  0  0  0  0  0  0  0  0  0
    4.1470    6.6329   -0.0000 C   0  0  0  0  0  0  0  0  0  0  0  0
    5.9614    4.7243   -0.0000 C   0  0  0  0  0  0  0  0  0  0  0  0
    5.9614    3.2163   -0.0000 C   0  0  0  0  0  0  0  0  0  0  0  0
    2.6861    7.0335   -0.0000 O   0  0  0  0  0  0  0  0  0  0  0  0
    5.1956    7.7050   -0.0000 C   0  0  0  0  0  0  0  0  0  0  0  0
    4.7950    9.1659   -0.0000 F   0  0  0  0  0  0  0  0  0  0  0  0
    6.6329    7.3280   -0.0000 F   0  0  0  0  0  0  0  0  0  0  0  0
    6.2441    8.7771   -0.0000 F   0  0  0  0  0  0  0  0  0  0  0  0
  1  2  1  0  0  0  0
  2  3  1  0  0  0  0
  2  4  1  0  0  0  0
  2  5  1  0  0  0  0
  5  6  2  0  0  0  0
  5  7  1  0  0  0  0
  6  8  1  0  0  0  0
  6  9  1  0  0  0  0
  7 10  2  0  0  0  0
  8 11  3  0  0  0  0
  9 12  2  0  0  0  0
 10 13  1  0  0  0  0
 14 13  1  6  0  0  0
 13 15  1  0  0  0  0
 14 16  1  0  0  0  0
 14 17  1  0  0  0  0
 15 18  1  0  0  0  0
 16 19  1  6  0  0  0
 16 20  1  0  0  0  0
 20 21  1  0  0  0  0
 20 22  1  0  0  0  0
 20 23  1  0  0  0  0
 10 12  1  0  0  0  0
 17 18  1  0  0  0  0
M  END
>  <MolRegNo>
2741818

>  <m>
=

>  <Value>
1

>  <Unit>
nM

>  <Type>
Ki

>  <pValue>
9

>  <Ligand Efficiency>
0.53

>  <Binding Efficiency>
26.61

>  <Surface Efficiency>
19.04

>  <Assay Index>
1567459

>  <Assay Category>


>  <Assay Organism>
Homo sapiens

>  <Target ID>
56

>  <Target Name>
Androgen Receptor

>  <Target Organism>
Homo sapiens

>  <Target Description>
Target is a single protein chain

>  <Sequence Accession>
P10275

>  <Reference>
J Med Chem 65 (13.0), 8772-8797 (2022)

>  <Pubmed ID>
35786895

>  <DOI>
10.1021/acs.jmedchem.2c00716

$$$$
2760556
Actelion Java MolfileCreator 1.0

 28 30  0  0  0  0  0  0  0  0999 V2000
    0.0000   -0.0000   -0.0000 Cl  0  0  0  0  0  0  0  0  0  0  0  0
   -0.0118    1.5096   -0.0000 C   0  0  0  0  0  0  0  0  0  0  0  0
   -1.3209    2.2644   -0.0000 C   0  0  0  0  0  0  0  0  0  0  0  0
    1.2620    2.2644   -0.0000 C   0  0  0  0  0  0  0  0  0  0  0  0
   -2.6301    1.5332   -0.0000 C   0  0  0  0  0  0  0  0  0  0  0  0
   -1.3327    3.7741   -0.0000 C   0  0  0  0  0  0  0  0  0  0  0  0
    1.2502    3.7623   -0.0000 C   0  0  0  0  0  0  0  0  0  0  0  0
    2.5475    1.5332   -0.0000 C   0  0  0  0  0  0  0  0  0  0  0  0
   -3.9392    0.8020   -0.0000 N   0  0  0  0  0  0  0  0  0  0  0  0
   -0.0472    4.5289   -0.0000 C   0  0  0  0  0  0  0  0  0  0  0  0
    2.5357    4.5171   -0.0000 N   0  0  0  0  0  0  0  0  0  0  0  0
    2.5239    6.0267   -0.0000 C   0  0  0  0  0  0  0  0  0  0  0  0
    1.2148    6.7815   -0.0000 C   0  0  0  0  0  0  0  0  0  0  0  0
    3.8095    6.7815   -0.0000 C   0  0  0  0  0  0  0  0  0  0  0  0
   -0.1651    6.1918   -0.0000 O   0  0  0  0  0  0  0  0  0  0  0  0
    1.0497    8.2794   -0.0000 C   0  0  0  0  0  0  0  0  0  0  0  0
    3.7977    8.2912   -0.0000 O   0  0  0  0  0  0  0  0  0  0  0  0
    5.0950    6.0503   -0.0000 C   0  0  0  0  0  0  0  0  0  0  0  0
   -1.1794    7.3123   -0.0000 C   0  0  0  0  0  0  0  0  0  0  0  0
   -0.4246    8.5978   -0.0000 C   0  0  0  0  0  0  0  0  0  0  0  0
   -2.6772    7.3241   -0.0000 C   0  0  0  0  0  0  0  0  0  0  0  0
   -3.4320    6.0385   -0.0000 C   0  0  0  0  0  0  0  0  0  0  0  0
   -3.4438    8.6332   -0.0000 C   0  0  0  0  0  0  0  0  0  0  0  0
   -4.9299    6.0503   -0.0000 C   0  0  0  0  0  0  0  0  0  0  0  0
   -4.9417    8.6332   -0.0000 C   0  0  0  0  0  0  0  0  0  0  0  0
   -5.6847    7.3594   -0.0000 C   0  0  0  0  0  0  0  0  0  0  0  0
   -7.1943    7.3712   -0.0000 C   0  0  0  0  0  0  0  0  0  0  0  0
   -8.7040    7.3830   -0.0000 N   0  0  0  0  0  0  0  0  0  0  0  0
  1  2  1  0  0  0  0
  2  3  2  0  0  0  0
  2  4  1  0  0  0  0
  3  5  1  0  0  0  0
  3  6  1  0  0  0  0
  4  7  2  0  0  0  0
  4  8  1  0  0  0  0
  5  9  3  0  0  0  0
  6 10  2  0  0  0  0
  7 11  1  0  0  0  0
 12 11  1  6  0  0  0
 12 13  1  0  0  0  0
 12 14  1  0  0  0  0
 13 15  1  0  0  0  0
 13 16  2  0  0  0  0
 14 17  1  6  0  0  0
 14 18  1  0  0  0  0
 15 19  1  0  0  0  0
 16 20  1  0  0  0  0
 19 21  1  0  0  0  0
 21 22  2  0  0  0  0
 21 23  1  0  0  0  0
 22 24  1  0  0  0  0
 23 25  2  0  0  0  0
 24 26  2  0  0  0  0
 26 27  1  0  0  0  0
 27 28  3  0  0  0  0
  7 10  1  0  0  0  0
 19 20  2  0  0  0  0
 25 26  1  0  0  0  0
M  END
>  <MolRegNo>
2760556

>  <m>
=

>  <Value>
7

>  <Unit>
nM

>  <Type>
Ki

>  <pValue>
8.15

>  <Ligand Efficiency>
0.4

>  <Binding Efficiency>
20.81

>  <Surface Efficiency>
8.77

>  <Assay Index>
1567466

>  <Assay Category>


>  <Assay Organism>
Homo sapiens

>  <Target ID>
56

>  <Target Name>
Androgen Receptor

>  <Target Organism>
Homo sapiens

>  <Target Description>
Target is a single protein chain

>  <Sequence Accession>
P10275

>  <Reference>
J Med Chem 65 (13.0), 8772-8797 (2022)

>  <Pubmed ID>
35786895

>  <DOI>
10.1021/acs.jmedchem.2c00716

$$$$
2757587
Actelion Java MolfileCreator 1.0

 38 43  0  0  0  0  0  0  0  0999 V2000
    0.0000   -0.0000   -0.0000 O   0  0  0  0  0  0  0  0  0  0  0  0
    0.7379    1.3211   -0.0000 N   0  0  0  0  0  0  0  0  0  0  0  0
   -0.0238    2.6422   -0.0000 O   0  0  0  0  0  0  0  0  0  0  0  0
    2.2256    1.3330   -0.0000 C   0  0  0  0  0  0  0  0  0  0  0  0
    2.9635    0.0476   -0.0000 C   0  0  0  0  0  0  0  0  0  0  0  0
    2.9635    2.6541   -0.0000 C   0  0  0  0  0  0  0  0  0  0  0  0
    4.4512    0.0595   -0.0000 C   0  0  0  0  0  0  0  0  0  0  0  0
    2.2018   -1.2497   -0.0000 C   0  0  0  0  0  0  0  0  0  0  0  0
    4.4631    2.6660   -0.0000 C   0  0  0  0  0  0  0  0  0  0  0  0
    5.1892    1.3687   -0.0000 C   0  0  0  0  0  0  0  0  0  0  0  0
    5.1892   -1.2259   -0.0000 C   0  0  0  0  0  0  0  0  0  0  0  0
    2.9516   -2.5351   -0.0000 C   0  0  0  0  0  0  0  0  0  0  0  0
    6.6769    1.3806   -0.0000 N   0  0  0  0  0  0  0  0  0  0  0  0
    4.4274   -2.5232   -0.0000 C   0  0  0  0  0  0  0  0  0  0  0  0
    7.5457    0.1785   -0.0000 C   0  0  0  0  0  0  0  0  0  0  0  0
    7.5457    2.6065   -0.0000 C   0  0  0  0  0  0  0  0  0  0  0  0
    7.1410   -1.2616   -0.0000 O   0  0  0  0  0  0  0  0  0  0  0  0
    8.9620    0.6546   -0.0000 N   0  0  0  0  0  0  0  0  0  0  0  0
    7.1410    4.0704   -0.0000 O   0  0  0  0  0  0  0  0  0  0  0  0
    8.9620    2.1542   -0.0000 C   0  0  0  0  0  0  0  0  0  0  0  0
   10.2474   -0.0833   -0.0000 C   0  0  0  0  0  0  0  0  0  0  0  0
   10.2474    2.9159   -0.0000 C   0  0  0  0  0  0  0  0  0  0  0  0
   11.5328    0.6784   -0.0000 C   0  0  0  0  0  0  0  0  0  0  0  0
   10.8068    1.4282   -0.0000 C   0  0  0  0  0  0  0  0  0  0  0  0
   11.5328    2.1780   -0.0000 N   0  0  0  0  0  0  0  0  0  0  0  0
   12.8182    2.9397   -0.0000 C   0  0  0  0  0  0  0  0  0  0  0  0
   12.8063    4.4512   -0.0000 O   0  0  0  0  0  0  0  0  0  0  0  0
   14.1035    2.2018   -0.0000 O   0  0  0  0  0  0  0  0  0  0  0  0
   15.3889    2.9635   -0.0000 C   0  0  0  0  0  0  0  0  0  0  0  0
   15.3770    4.4750   -0.0000 C   0  0  0  0  0  0  0  0  0  0  0  0
   16.6862    2.2256   -0.0000 C   0  0  0  0  0  0  0  0  0  0  0  0
   16.6624    5.2368   -0.0000 C   0  0  0  0  0  0  0  0  0  0  0  0
   17.9716    2.9992   -0.0000 C   0  0  0  0  0  0  0  0  0  0  0  0
   17.9597    4.4989   -0.0000 C   0  0  0  0  0  0  0  0  0  0  0  0
   19.2451    5.2606   -0.0000 C   0  0  0  0  0  0  0  0  0  0  0  0
   20.5305    4.5227   -0.0000 C   0  0  0  0  0  0  0  0  0  0  0  0
   21.8159    5.2844   -0.0000 C   0  0  0  0  0  0  0  0  0  0  0  0
   23.1012    4.5465   -0.0000 C   0  0  0  0  0  0  0  0  0  0  0  0
  1  2  2  0  0  0  0
  2  3  1  0  0  0  0
  2  4  1  0  0  0  0
  4  5  1  0  0  0  0
  4  6  2  0  0  0  0
  5  7  1  0  0  0  0
  5  8  2  0  0  0  0
  6  9  1  0  0  0  0
  7 10  1  0  0  0  0
  7 11  2  0  0  0  0
  8 12  1  0  0  0  0
 10 13  1  0  0  0  0
 11 14  1  0  0  0  0
 13 15  1  0  0  0  0
 13 16  1  0  0  0  0
 15 17  2  0  0  0  0
 15 18  1  0  0  0  0
 16 19  2  0  0  0  0
 16 20  1  0  0  0  0
 21 18  1  6  0  0  0
 20 22  1  0  0  0  0
 21 23  1  0  0  0  0
 21 24  1  0  0  0  0
 22 25  1  6  0  0  0
 25 26  1  0  0  0  0
 26 27  2  0  0  0  0
 26 28  1  0  0  0  0
 28 29  1  0  0  0  0
 29 30  2  0  0  0  0
 29 31  1  0  0  0  0
 30 32  1  0  0  0  0
 31 33  2  0  0  0  0
 32 34  2  0  0  0  0
 34 35  1  0  0  0  0
 35 36  1  0  0  0  0
 36 37  1  0  0  0  0
 37 38  1  0  0  0  0
  9 10  2  0  0  0  0
 12 14  2  0  0  0  0
 20 18  1  6  0  0  0
 22 24  1  0  0  0  0
 23 25  1  0  0  0  0
 33 34  1  0  0  0  0
M  CHG  2   2   1   3  -1
M  END
>  <MolRegNo>
2757587

>  <m>
=

>  <Value>
73

>  <Unit>
nM

>  <Type>
Ki

>  <pValue>
7.14

>  <Ligand Efficiency>
0.26

>  <Binding Efficiency>
13.87

>  <Surface Efficiency>
6.3

>  <Assay Index>
1567487

>  <Assay Category>


>  <Assay Organism>
Homo sapiens

>  <Target ID>
56

>  <Target Name>
Androgen Receptor

>  <Target Organism>
Homo sapiens

>  <Target Description>
Target is a single protein chain

>  <Sequence Accession>
P10275

>  <Reference>
J Med Chem 65 (13.0), 8772-8797 (2022)

>  <Pubmed ID>
35786895

>  <DOI>
10.1021/acs.jmedchem.2c00716

$$$$
2757444
Actelion Java MolfileCreator 1.0

 24 27  0  0  0  0  0  0  0  0999 V2000
    0.0000   -0.0000   -0.0000 I   0  0  0  0  0  0  0  0  0  0  0  0
    0.6964    1.2611   -0.0000 C   0  0  0  0  0  0  0  0  0  0  0  0
   -0.0376    2.5222   -0.0000 C   0  0  0  0  0  0  0  0  0  0  0  0
    2.1081    1.2799   -0.0000 C   0  0  0  0  0  0  0  0  0  0  0  0
   -1.4870    2.5410   -0.0000 C   0  0  0  0  0  0  0  0  0  0  0  0
    0.6588    3.7833   -0.0000 C   0  0  0  0  0  0  0  0  0  0  0  0
    2.8046    2.5410   -0.0000 C   0  0  0  0  0  0  0  0  0  0  0  0
   -2.9363    2.5599   -0.0000 N   0  0  0  0  0  0  0  0  0  0  0  0
    2.0705    3.8022   -0.0000 C   0  0  0  0  0  0  0  0  0  0  0  0
    4.2163    2.5599   -0.0000 N   0  0  0  0  0  0  0  0  0  0  0  0
    5.0444    1.4117   -0.0000 C   0  0  0  0  0  0  0  0  0  0  0  0
    5.0444    3.7457   -0.0000 C   0  0  0  0  0  0  0  0  0  0  0  0
    4.6492    0.0376   -0.0000 O   0  0  0  0  0  0  0  0  0  0  0  0
    6.3808    1.8823   -0.0000 C   0  0  0  0  0  0  0  0  0  0  0  0
    4.6492    5.1574   -0.0000 O   0  0  0  0  0  0  0  0  0  0  0  0
    6.3808    3.3128   -0.0000 C   0  0  0  0  0  0  0  0  0  0  0  0
    8.1690    2.3152   -0.0000 C   0  0  0  0  0  0  0  0  0  0  0  0
    7.9055    3.7645   -0.0000 C   0  0  0  0  0  0  0  0  0  0  0  0
    6.9832    4.7245   -0.0000 O   0  0  0  0  0  0  0  0  0  0  0  0
    9.4866    1.7129   -0.0000 C   0  0  0  0  0  0  0  0  0  0  0  0
    8.1502    0.9035   -0.0000 C   0  0  0  0  0  0  0  0  0  0  0  0
    9.3548    3.0304   -0.0000 C   0  0  0  0  0  0  0  0  0  0  0  0
    8.2443    5.1762   -0.0000 C   0  0  0  0  0  0  0  0  0  0  0  0
   10.1830    0.4894   -0.0000 O   0  0  0  0  0  0  0  0  0  0  0  0
  1  2  1  0  0  0  0
  2  3  2  0  0  0  0
  2  4  1  0  0  0  0
  3  5  1  0  0  0  0
  3  6  1  0  0  0  0
  4  7  2  0  0  0  0
  5  8  3  0  0  0  0
  6  9  2  0  0  0  0
  7 10  1  0  0  0  0
 10 11  1  0  0  0  0
 10 12  1  0  0  0  0
 11 13  2  0  0  0  0
 14 11  1  6  0  0  0
 12 15  2  0  0  0  0
 16 12  1  6  0  0  0
 14 17  1  0  0  0  0
 16 18  1  0  0  0  0
 17 19  1  0  0  0  0
 17 20  1  0  0  0  0
 17 21  1  6  0  0  0
 18 22  1  0  0  0  0
 18 23  1  1  0  0  0
 20 24  1  6  0  0  0
  7  9  1  0  0  0  0
 14 16  1  0  0  0  0
 18 19  1  0  0  0  0
 20 22  1  0  0  0  0
M  END
>  <MolRegNo>
2757444

>  <m>
=

>  <Value>
2.4

>  <Unit>
nM

>  <Type>
Ki

>  <pValue>
8.62

>  <Ligand Efficiency>
0.49

>  <Binding Efficiency>
19.67

>  <Surface Efficiency>
9.51

>  <Assay Index>
1567487

>  <Assay Category>


>  <Assay Organism>
Homo sapiens

>  <Target ID>
56

>  <Target Name>
Androgen Receptor

>  <Target Organism>
Homo sapiens

>  <Target Description>
Target is a single protein chain

>  <Sequence Accession>
P10275

>  <Reference>
J Med Chem 65 (13.0), 8772-8797 (2022)

>  <Pubmed ID>
35786895

>  <DOI>
10.1021/acs.jmedchem.2c00716

$$$$
2761220
Actelion Java MolfileCreator 1.0

 30 33  0  0  0  0  0  0  0  0999 V2000
    0.0000   -0.0000   -0.0000 F   0  0  0  0  0  0  0  0  0  0  0  0
   -0.7308    1.2554   -0.0000 C   0  0  0  0  0  0  0  0  0  0  0  0
   -2.1736    1.2742   -0.0000 F   0  0  0  0  0  0  0  0  0  0  0  0
   -1.4615    0.0375   -0.0000 F   0  0  0  0  0  0  0  0  0  0  0  0
   -0.0375    2.5109   -0.0000 C   0  0  0  0  0  0  0  0  0  0  0  0
   -0.7682    3.7663   -0.0000 C   0  0  0  0  0  0  0  0  0  0  0  0
    1.3679    2.5296   -0.0000 C   0  0  0  0  0  0  0  0  0  0  0  0
   -2.2111    3.7850   -0.0000 C   0  0  0  0  0  0  0  0  0  0  0  0
   -0.0750    5.0217   -0.0000 C   0  0  0  0  0  0  0  0  0  0  0  0
    2.0611    3.7850   -0.0000 C   0  0  0  0  0  0  0  0  0  0  0  0
   -3.6539    3.8038   -0.0000 N   0  0  0  0  0  0  0  0  0  0  0  0
    1.3304    5.0404   -0.0000 C   0  0  0  0  0  0  0  0  0  0  0  0
    3.4665    3.8038   -0.0000 N   0  0  0  0  0  0  0  0  0  0  0  0
    4.2909    2.6608   -0.0000 C   0  0  0  0  0  0  0  0  0  0  0  0
    4.2909    4.9842   -0.0000 C   0  0  0  0  0  0  0  0  0  0  0  0
    3.8974    1.2929   -0.0000 O   0  0  0  0  0  0  0  0  0  0  0  0
    5.6213    3.1292   -0.0000 C   0  0  0  0  0  0  0  0  0  0  0  0
    3.8974    6.3896   -0.0000 O   0  0  0  0  0  0  0  0  0  0  0  0
    5.6213    4.5533   -0.0000 C   0  0  0  0  0  0  0  0  0  0  0  0
    7.4014    3.5602   -0.0000 C   0  0  0  0  0  0  0  0  0  0  0  0
    7.1391    5.0030   -0.0000 C   0  0  0  0  0  0  0  0  0  0  0  0
    6.2209    5.9586   -0.0000 O   0  0  0  0  0  0  0  0  0  0  0  0
    8.7130    2.9606   -0.0000 C   0  0  0  0  0  0  0  0  0  0  0  0
    7.3827    2.1548   -0.0000 C   0  0  0  0  0  0  0  0  0  0  0  0
    8.3195    4.1785   -0.0000 C   0  0  0  0  0  0  0  0  0  0  0  0
    7.4764    6.4083   -0.0000 C   0  0  0  0  0  0  0  0  0  0  0  0
    9.9872    4.2722   -0.0000 N   0  0  0  0  0  0  0  0  0  0  0  0
   11.2052    5.0030   -0.0000 C   0  0  0  0  0  0  0  0  0  0  0  0
   12.4231    4.3097   -0.0000 C   0  0  0  0  0  0  0  0  0  0  0  0
   11.1864    6.4458   -0.0000 C   0  0  0  0  0  0  0  0  0  0  0  0
  1  2  1  0  0  0  0
  2  3  1  0  0  0  0
  2  4  1  0  0  0  0
  2  5  1  0  0  0  0
  5  6  2  0  0  0  0
  5  7  1  0  0  0  0
  6  8  1  0  0  0  0
  6  9  1  0  0  0  0
  7 10  2  0  0  0  0
  8 11  3  0  0  0  0
  9 12  2  0  0  0  0
 10 13  1  0  0  0  0
 13 14  1  0  0  0  0
 13 15  1  0  0  0  0
 14 16  2  0  0  0  0
 17 14  1  6  0  0  0
 15 18  2  0  0  0  0
 19 15  1  6  0  0  0
 17 20  1  0  0  0  0
 19 21  1  0  0  0  0
 20 22  1  0  0  0  0
 20 23  1  0  0  0  0
 20 24  1  6  0  0  0
 21 25  1  0  0  0  0
 21 26  1  6  0  0  0
 23 27  1  0  0  0  0
 27 28  1  0  0  0  0
 28 29  1  0  0  0  0
 28 30  1  0  0  0  0
 10 12  1  0  0  0  0
 17 19  1  0  0  0  0
 21 22  1  0  0  0  0
 25 27  1  0  0  0  0
M  END
>  <MolRegNo>
2761220

>  <m>
=

>  <Value>
14

>  <Unit>
nM

>  <Type>
Ki

>  <pValue>
7.85

>  <Ligand Efficiency>
0.36

>  <Binding Efficiency>
18.64

>  <Surface Efficiency>
10.67

>  <Assay Index>
1567487

>  <Assay Category>


>  <Assay Organism>
Homo sapiens

>  <Target ID>
56

>  <Target Name>
Androgen Receptor

>  <Target Organism>
Homo sapiens

>  <Target Description>
Target is a single protein chain

>  <Sequence Accession>
P10275

>  <Reference>
J Med Chem 65 (13.0), 8772-8797 (2022)

>  <Pubmed ID>
35786895

>  <DOI>
10.1021/acs.jmedchem.2c00716

$$$$
2765995
Actelion Java MolfileCreator 1.0

 29 32  0  0  0  0  0  0  0  0999 V2000
    0.0000   -0.0000   -0.0000 F   0  0  0  0  0  0  0  0  0  0  0  0
   -0.7601    1.3063   -0.0000 C   0  0  0  0  0  0  0  0  0  0  0  0
   -2.2683    1.3182   -0.0000 F   0  0  0  0  0  0  0  0  0  0  0  0
   -1.5201    0.0238   -0.0000 F   0  0  0  0  0  0  0  0  0  0  0  0
   -0.0238    2.6127   -0.0000 C   0  0  0  0  0  0  0  0  0  0  0  0
   -0.7838    3.9072   -0.0000 C   0  0  0  0  0  0  0  0  0  0  0  0
    1.4607    2.6246   -0.0000 C   0  0  0  0  0  0  0  0  0  0  0  0
   -2.2920    3.9190   -0.0000 C   0  0  0  0  0  0  0  0  0  0  0  0
   -0.0594    5.2135   -0.0000 C   0  0  0  0  0  0  0  0  0  0  0  0
    2.1970    3.9190   -0.0000 C   0  0  0  0  0  0  0  0  0  0  0  0
   -3.8003    3.9309   -0.0000 N   0  0  0  0  0  0  0  0  0  0  0  0
    1.4251    5.2254   -0.0000 C   0  0  0  0  0  0  0  0  0  0  0  0
    3.6815    3.9309   -0.0000 N   0  0  0  0  0  0  0  0  0  0  0  0
    4.5484    5.1541   -0.0000 C   0  0  0  0  0  0  0  0  0  0  0  0
    4.5484    2.7314   -0.0000 C   0  0  0  0  0  0  0  0  0  0  0  0
    4.1447    6.6030   -0.0000 O   0  0  0  0  0  0  0  0  0  0  0  0
    5.9617    4.7028   -0.0000 C   0  0  0  0  0  0  0  0  0  0  0  0
    4.1447    1.3063   -0.0000 O   0  0  0  0  0  0  0  0  0  0  0  0
    5.9617    3.2065   -0.0000 C   0  0  0  0  0  0  0  0  0  0  0  0
    5.7954    6.1992   -0.0000 C   0  0  0  0  0  0  0  0  0  0  0  0
    7.2443    5.4629   -0.0000 C   0  0  0  0  0  0  0  0  0  0  0  0
    7.2443    2.4702   -0.0000 C   0  0  0  0  0  0  0  0  0  0  0  0
    4.7266    7.2680   -0.0000 O   0  0  0  0  0  0  0  0  0  0  0  0
    7.0780    6.9592   -0.0000 N   0  0  0  0  0  0  0  0  0  0  0  0
    8.5269    4.7266   -0.0000 C   0  0  0  0  0  0  0  0  0  0  0  0
    7.7193    3.9665   -0.0000 C   0  0  0  0  0  0  0  0  0  0  0  0
    8.5269    3.2302   -0.0000 C   0  0  0  0  0  0  0  0  0  0  0  0
    7.0661    8.4675   -0.0000 C   0  0  0  0  0  0  0  0  0  0  0  0
    9.8095    5.4866   -0.0000 F   0  0  0  0  0  0  0  0  0  0  0  0
  1  2  1  0  0  0  0
  2  3  1  0  0  0  0
  2  4  1  0  0  0  0
  2  5  1  0  0  0  0
  5  6  2  0  0  0  0
  5  7  1  0  0  0  0
  6  8  1  0  0  0  0
  6  9  1  0  0  0  0
  7 10  2  0  0  0  0
  8 11  3  0  0  0  0
  9 12  2  0  0  0  0
 10 13  1  0  0  0  0
 13 14  1  0  0  0  0
 13 15  1  0  0  0  0
 14 16  2  0  0  0  0
 14 17  1  0  0  0  0
 15 18  2  0  0  0  0
 19 15  1  1  0  0  0
 17 20  1  6  0  0  0
 17 21  1  0  0  0  0
 19 22  1  0  0  0  0
 20 23  2  0  0  0  0
 20 24  1  0  0  0  0
 21 25  1  0  0  0  0
 21 26  1  6  0  0  0
 22 27  1  1  0  0  0
 24 28  1  0  0  0  0
 25 29  1  6  0  0  0
 10 12  1  0  0  0  0
 17 19  1  0  0  0  0
 22 26  1  0  0  0  0
 25 27  1  0  0  0  0
M  END
>  <MolRegNo>
2765995

>  <m>
=

>  <Value>
8

>  <Unit>
nM

>  <Type>
Ki

>  <pValue>
8.1

>  <Ligand Efficiency>
0.38

>  <Binding Efficiency>
19.78

>  <Surface Efficiency>
8.97

>  <Assay Index>
1567487

>  <Assay Category>


>  <Assay Organism>
Homo sapiens

>  <Target ID>
56

>  <Target Name>
Androgen Receptor

>  <Target Organism>
Homo sapiens

>  <Target Description>
Target is a single protein chain

>  <Sequence Accession>
P10275

>  <Reference>
J Med Chem 65 (13.0), 8772-8797 (2022)

>  <Pubmed ID>
35786895

>  <DOI>
10.1021/acs.jmedchem.2c00716

$$$$
2141835
Actelion Java MolfileCreator 1.0

 32 35  0  0  0  0  0  0  0  0999 V2000
    0.0000   -0.0000   -0.0000 S   0  0  0  0  0  0  0  0  0  0  0  0
   -0.7704    1.3084   -0.0000 O   0  0  0  0  0  0  0  0  0  0  0  0
    0.7337    1.3207   -0.0000 O   0  0  0  0  0  0  0  0  0  0  0  0
    1.2962   -0.7459   -0.0000 N   0  0  0  0  0  0  0  0  0  0  0  0
   -1.3084   -0.7459   -0.0000 C   0  0  0  0  0  0  0  0  0  0  0  0
    2.5924    0.0245   -0.0000 C   0  0  0  0  0  0  0  0  0  0  0  0
   -2.6291    0.0122   -0.0000 C   0  0  0  0  0  0  0  0  0  0  0  0
    3.8764   -0.7093   -0.0000 C   0  0  0  0  0  0  0  0  0  0  0  0
    2.5802    1.5408   -0.0000 C   0  0  0  0  0  0  0  0  0  0  0  0
    3.4607    0.8560   -0.0000 O   0  0  0  0  0  0  0  0  0  0  0  0
    5.1482    0.0367   -0.0000 C   0  0  0  0  0  0  0  0  0  0  0  0
    4.0599   -2.1889   -0.0000 C   0  0  0  0  0  0  0  0  0  0  0  0
    3.8642    2.3112   -0.0000 C   0  0  0  0  0  0  0  0  0  0  0  0
    6.5667   -0.4158   -0.0000 C   0  0  0  0  0  0  0  0  0  0  0  0
    5.1360    1.5530   -0.0000 C   0  0  0  0  0  0  0  0  0  0  0  0
    3.8397    3.8275   -0.0000 C   0  0  0  0  0  0  0  0  0  0  0  0
    7.0192   -1.8343   -0.0000 O   0  0  0  0  0  0  0  0  0  0  0  0
    7.4349    0.8071   -0.0000 N   0  0  0  0  0  0  0  0  0  0  0  0
    6.5545    2.0299   -0.0000 C   0  0  0  0  0  0  0  0  0  0  0  0
    8.9146    0.8193   -0.0000 C   0  0  0  0  0  0  0  0  0  0  0  0
    7.0069    3.4729   -0.0000 O   0  0  0  0  0  0  0  0  0  0  0  0
    9.6483   -0.4647   -0.0000 C   0  0  0  0  0  0  0  0  0  0  0  0
    9.6483    2.1278   -0.0000 C   0  0  0  0  0  0  0  0  0  0  0  0
   11.1279   -0.4525   -0.0000 C   0  0  0  0  0  0  0  0  0  0  0  0
   11.1279    2.1400   -0.0000 C   0  0  0  0  0  0  0  0  0  0  0  0
   11.8739    0.8560   -0.0000 C   0  0  0  0  0  0  0  0  0  0  0  0
   11.8739   -1.7487   -0.0000 C   0  0  0  0  0  0  0  0  0  0  0  0
   13.3657    0.8682   -0.0000 C   0  0  0  0  0  0  0  0  0  0  0  0
   12.5464   -2.9104   -0.0000 F   0  0  0  0  0  0  0  0  0  0  0  0
   11.2991   -3.1916   -0.0000 F   0  0  0  0  0  0  0  0  0  0  0  0
   13.4147   -1.9932   -0.0000 F   0  0  0  0  0  0  0  0  0  0  0  0
   14.8576    0.8805   -0.0000 N   0  0  0  0  0  0  0  0  0  0  0  0
  1  2  2  0  0  0  0
  1  3  2  0  0  0  0
  1  4  1  0  0  0  0
  1  5  1  0  0  0  0
  6  4  1  6  0  0  0
  5  7  1  0  0  0  0
  6  8  1  0  0  0  0
  6  9  1  0  0  0  0
  8 10  1  0  0  0  0
  8 11  1  0  0  0  0
  8 12  1  1  0  0  0
  9 13  1  0  0  0  0
 11 14  1  1  0  0  0
 11 15  1  0  0  0  0
 13 16  1  1  0  0  0
 14 17  2  0  0  0  0
 14 18  1  0  0  0  0
 15 19  1  1  0  0  0
 18 20  1  0  0  0  0
 19 21  2  0  0  0  0
 20 22  2  0  0  0  0
 20 23  1  0  0  0  0
 22 24  1  0  0  0  0
 23 25  2  0  0  0  0
 24 26  2  0  0  0  0
 24 27  1  0  0  0  0
 26 28  1  0  0  0  0
 27 29  1  0  0  0  0
 27 30  1  0  0  0  0
 27 31  1  0  0  0  0
 28 32  3  0  0  0  0
 10 13  1  0  0  0  0
 13 15  1  0  0  0  0
 18 19  1  0  0  0  0
 25 26  1  0  0  0  0
M  END
>  <MolRegNo>
2141835

>  <m>
=

>  <Value>
1.7

>  <Unit>
nM

>  <Type>
Ki

>  <pValue>
8.77

>  <Ligand Efficiency>
0.37

>  <Binding Efficiency>
18.6

>  <Surface Efficiency>
7.52

>  <Assay Index>
1567487

>  <Assay Category>


>  <Assay Organism>
Homo sapiens

>  <Target ID>
56

>  <Target Name>
Androgen Receptor

>  <Target Organism>
Homo sapiens

>  <Target Description>
Target is a single protein chain

>  <Sequence Accession>
P10275

>  <Reference>
J Med Chem 65 (13.0), 8772-8797 (2022)

>  <Pubmed ID>
35786895

>  <DOI>
10.1021/acs.jmedchem.2c00716

$$$$
