97363
Actelion Java MolfileCreator 1.0

 41 44  0  0  0  0  0  0  0  0999 V2000
    0.0000   -0.0000   -0.0000 Br  0  0  0  0  0  0  0  0  0  0  0  0
    1.4822    0.0237   -0.0000 C   0  0  0  0  0  0  0  0  0  0  0  0
    2.2174   -1.2569   -0.0000 C   0  0  0  0  0  0  0  0  0  0  0  0
    2.2174    1.3399   -0.0000 C   0  0  0  0  0  0  0  0  0  0  0  0
    3.6995   -1.2450   -0.0000 C   0  0  0  0  0  0  0  0  0  0  0  0
    3.6995    1.3518   -0.0000 C   0  0  0  0  0  0  0  0  0  0  0  0
    4.4347    0.0593   -0.0000 C   0  0  0  0  0  0  0  0  0  0  0  0
    5.9169    0.0711   -0.0000 O   0  0  0  0  0  0  0  0  0  0  0  0
    6.6521   -1.2095   -0.0000 C   0  0  0  0  0  0  0  0  0  0  0  0
    8.1343   -1.1739   -0.0000 C   0  0  0  0  0  0  0  0  0  0  0  0
    8.8694   -2.4545   -0.0000 O   0  0  0  0  0  0  0  0  0  0  0  0
    8.8694    0.1304   -0.0000 C   0  0  0  0  0  0  0  0  0  0  0  0
    8.0987    1.4466   -0.0000 N   0  0  0  0  0  0  0  0  0  0  0  0
    8.8338    2.7509   -0.0000 C   0  0  0  0  0  0  0  0  0  0  0  0
    6.5809    1.4585   -0.0000 C   0  0  0  0  0  0  0  0  0  0  0  0
    8.0750    4.0553   -0.0000 C   0  0  0  0  0  0  0  0  0  0  0  0
    5.8220    2.7628   -0.0000 C   0  0  0  0  0  0  0  0  0  0  0  0
    6.5572    4.0671   -0.0000 N   0  0  0  0  0  0  0  0  0  0  0  0
    5.7983    5.3715   -0.0000 C   0  0  0  0  0  0  0  0  0  0  0  0
    4.2924    5.3833   -0.0000 C   0  0  0  0  0  0  0  0  0  0  0  0
    6.5335    6.6876   -0.0000 C   0  0  0  0  0  0  0  0  0  0  0  0
    3.5335    4.1027   -0.0000 C   0  0  0  0  0  0  0  0  0  0  0  0
    3.5335    6.6995   -0.0000 C   0  0  0  0  0  0  0  0  0  0  0  0
    5.7746    7.9920   -0.0000 N   0  0  0  0  0  0  0  0  0  0  0  0
    2.0276    4.1146   -0.0000 C   0  0  0  0  0  0  0  0  0  0  0  0
    2.0276    6.7114   -0.0000 C   0  0  0  0  0  0  0  0  0  0  0  0
    4.2687    8.0038   -0.0000 S   0  0  0  0  0  0  0  0  0  0  0  0
    1.2688    5.4189   -0.0000 C   0  0  0  0  0  0  0  0  0  0  0  0
    4.2568    6.5216   -0.0000 O   0  0  0  0  0  0  0  0  0  0  0  0
    2.7628    8.0157   -0.0000 O   0  0  0  0  0  0  0  0  0  0  0  0
    4.2568    9.5097   -0.0000 C   0  0  0  0  0  0  0  0  0  0  0  0
   -0.2372    5.4189   -0.0000 C   0  0  0  0  0  0  0  0  0  0  0  0
    2.9525   10.2686   -0.0000 C   0  0  0  0  0  0  0  0  0  0  0  0
    5.5493   10.2686   -0.0000 C   0  0  0  0  0  0  0  0  0  0  0  0
   -1.7431    5.4070   -0.0000 F   0  0  0  0  0  0  0  0  0  0  0  0
   -0.2609    6.9248   -0.0000 F   0  0  0  0  0  0  0  0  0  0  0  0
   -0.2372    3.9367   -0.0000 F   0  0  0  0  0  0  0  0  0  0  0  0
    2.9407   11.7745   -0.0000 C   0  0  0  0  0  0  0  0  0  0  0  0
    5.5375   11.7745   -0.0000 C   0  0  0  0  0  0  0  0  0  0  0  0
    4.2213   12.5334   -0.0000 C   0  0  0  0  0  0  0  0  0  0  0  0
    1.6363   12.5334   -0.0000 C   0  0  0  0  0  0  0  0  0  0  0  0
  1  2  1  0  0  0  0
  2  3  2  0  0  0  0
  2  4  1  0  0  0  0
  3  5  1  0  0  0  0
  4  6  2  0  0  0  0
  5  7  2  0  0  0  0
  7  8  1  0  0  0  0
  8  9  1  0  0  0  0
  9 10  1  0  0  0  0
 10 11  1  0  0  0  0
 10 12  1  0  0  0  0
 12 13  1  0  0  0  0
 13 14  1  0  0  0  0
 13 15  1  0  0  0  0
 14 16  1  0  0  0  0
 15 17  1  0  0  0  0
 16 18  1  0  0  0  0
 18 19  1  0  0  0  0
 19 20  1  0  0  0  0
 19 21  1  0  0  0  0
 20 22  2  0  0  0  0
 20 23  1  0  0  0  0
 21 24  1  0  0  0  0
 22 25  1  0  0  0  0
 23 26  2  0  0  0  0
 24 27  1  0  0  0  0
 25 28  2  0  0  0  0
 27 29  2  0  0  0  0
 27 30  2  0  0  0  0
 27 31  1  0  0  0  0
 28 32  1  0  0  0  0
 31 33  2  0  0  0  0
 31 34  1  0  0  0  0
 32 35  1  0  0  0  0
 32 36  1  0  0  0  0
 32 37  1  0  0  0  0
 33 38  1  0  0  0  0
 34 39  2  0  0  0  0
 38 40  2  0  0  0  0
 38 41  1  0  0  0  0
  6  7  1  0  0  0  0
 17 18  1  0  0  0  0
 26 28  1  0  0  0  0
 39 40  1  0  0  0  0
M  END
>  <MolRegNo>
97363

>  <m>
=

>  <Value>
10000

>  <Unit>
nM

>  <Type>
Ki

>  <pValue>
5

>  <Ligand Efficiency>
0

>  <Binding Efficiency>
0

>  <Surface Efficiency>
0

>  <Assay Index>
51650

>  <Assay Category>


>  <Assay Organism>


>  <Target ID>
11365

>  <Target Name>
Cytochrome P450 2D6

>  <Target Organism>
Homo sapiens

>  <Target Description>
Target is a single protein chain

>  <Sequence Accession>
P10635

>  <Reference>
Bioorg Med Chem Lett 14 (9), 2025-2030 (2004)

>  <Pubmed ID>
15080972

>  <DOI>
10.1016/j.bmcl.2004.02.078

$$$$
96998
Actelion Java MolfileCreator 1.0

 41 44  0  0  0  0  0  0  0  0999 V2000
    0.0000   -0.0000   -0.0000 Cl  0  0  0  0  0  0  0  0  0  0  0  0
    1.2954    0.7843   -0.0000 C   0  0  0  0  0  0  0  0  0  0  0  0
    2.5788    0.0475   -0.0000 C   0  0  0  0  0  0  0  0  0  0  0  0
    1.2835    2.2936   -0.0000 C   0  0  0  0  0  0  0  0  0  0  0  0
    2.5670   -1.4380   -0.0000 S   0  0  0  0  0  0  0  0  0  0  0  0
    3.8623    0.8081   -0.0000 C   0  0  0  0  0  0  0  0  0  0  0  0
    2.5670    3.0542   -0.0000 C   0  0  0  0  0  0  0  0  0  0  0  0
    2.5551   -2.9235   -0.0000 O   0  0  0  0  0  0  0  0  0  0  0  0
    1.0577   -1.4261   -0.0000 O   0  0  0  0  0  0  0  0  0  0  0  0
    4.0525   -1.4261   -0.0000 N   0  0  0  0  0  0  0  0  0  0  0  0
    3.8504    2.3174   -0.0000 C   0  0  0  0  0  0  0  0  0  0  0  0
    4.7893   -2.7096   -0.0000 C   0  0  0  0  0  0  0  0  0  0  0  0
    4.0287   -4.0049   -0.0000 C   0  0  0  0  0  0  0  0  0  0  0  0
    4.7655   -5.2884   -0.0000 N   0  0  0  0  0  0  0  0  0  0  0  0
    2.5194   -3.9931   -0.0000 C   0  0  0  0  0  0  0  0  0  0  0  0
    6.2510   -5.2765   -0.0000 C   0  0  0  0  0  0  0  0  0  0  0  0
    4.0049   -6.5719   -0.0000 C   0  0  0  0  0  0  0  0  0  0  0  0
    1.7588   -5.2765   -0.0000 C   0  0  0  0  0  0  0  0  0  0  0  0
    1.7588   -2.6739   -0.0000 C   0  0  0  0  0  0  0  0  0  0  0  0
    6.9878   -6.5600   -0.0000 C   0  0  0  0  0  0  0  0  0  0  0  0
    4.7417   -7.8554   -0.0000 C   0  0  0  0  0  0  0  0  0  0  0  0
    0.2377   -5.2646   -0.0000 C   0  0  0  0  0  0  0  0  0  0  0  0
    0.2377   -2.6620   -0.0000 C   0  0  0  0  0  0  0  0  0  0  0  0
    6.2273   -7.8435   -0.0000 N   0  0  0  0  0  0  0  0  0  0  0  0
   -0.5229   -3.9574   -0.0000 C   0  0  0  0  0  0  0  0  0  0  0  0
    6.9878   -9.1389   -0.0000 C   0  0  0  0  0  0  0  0  0  0  0  0
   -2.0322   -3.9574   -0.0000 C   0  0  0  0  0  0  0  0  0  0  0  0
    6.2273  -10.4223   -0.0000 C   0  0  0  0  0  0  0  0  0  0  0  0
   -3.5415   -3.9693   -0.0000 F   0  0  0  0  0  0  0  0  0  0  0  0
   -2.0559   -2.4481   -0.0000 F   0  0  0  0  0  0  0  0  0  0  0  0
   -2.0203   -5.4429   -0.0000 F   0  0  0  0  0  0  0  0  0  0  0  0
    6.9641  -11.7058   -0.0000 O   0  0  0  0  0  0  0  0  0  0  0  0
    4.7180  -10.4342   -0.0000 C   0  0  0  0  0  0  0  0  0  0  0  0
    3.9574   -9.1270   -0.0000 O   0  0  0  0  0  0  0  0  0  0  0  0
    2.4481   -9.1151   -0.0000 C   0  0  0  0  0  0  0  0  0  0  0  0
    1.6875   -7.7960   -0.0000 C   0  0  0  0  0  0  0  0  0  0  0  0
    1.6875  -10.3986   -0.0000 C   0  0  0  0  0  0  0  0  0  0  0  0
    0.1664   -7.7841   -0.0000 C   0  0  0  0  0  0  0  0  0  0  0  0
    0.1664  -10.3867   -0.0000 C   0  0  0  0  0  0  0  0  0  0  0  0
   -0.5942   -9.0794   -0.0000 C   0  0  0  0  0  0  0  0  0  0  0  0
   -2.1035   -9.0794   -0.0000 F   0  0  0  0  0  0  0  0  0  0  0  0
  1  2  1  0  0  0  0
  2  3  2  0  0  0  0
  2  4  1  0  0  0  0
  3  5  1  0  0  0  0
  3  6  1  0  0  0  0
  4  7  2  0  0  0  0
  5  8  2  0  0  0  0
  5  9  2  0  0  0  0
  5 10  1  0  0  0  0
  6 11  2  0  0  0  0
 10 12  1  0  0  0  0
 12 13  1  0  0  0  0
 13 14  1  0  0  0  0
 13 15  1  0  0  0  0
 14 16  1  0  0  0  0
 14 17  1  0  0  0  0
 15 18  2  0  0  0  0
 15 19  1  0  0  0  0
 16 20  1  0  0  0  0
 17 21  1  0  0  0  0
 18 22  1  0  0  0  0
 19 23  2  0  0  0  0
 20 24  1  0  0  0  0
 22 25  2  0  0  0  0
 24 26  1  0  0  0  0
 25 27  1  0  0  0  0
 26 28  1  0  0  0  0
 27 29  1  0  0  0  0
 27 30  1  0  0  0  0
 27 31  1  0  0  0  0
 28 32  1  0  0  0  0
 28 33  1  0  0  0  0
 33 34  1  0  0  0  0
 34 35  1  0  0  0  0
 35 36  2  0  0  0  0
 35 37  1  0  0  0  0
 36 38  1  0  0  0  0
 37 39  2  0  0  0  0
 38 40  2  0  0  0  0
 40 41  1  0  0  0  0
  7 11  1  0  0  0  0
 21 24  1  0  0  0  0
 23 25  1  0  0  0  0
 39 40  1  0  0  0  0
M  END
>  <MolRegNo>
96998

>  <m>
=

>  <Value>
10000

>  <Unit>
nM

>  <Type>
Ki

>  <pValue>
5

>  <Ligand Efficiency>
0

>  <Binding Efficiency>
0

>  <Surface Efficiency>
0

>  <Assay Index>
51650

>  <Assay Category>


>  <Assay Organism>


>  <Target ID>
11365

>  <Target Name>
Cytochrome P450 2D6

>  <Target Organism>
Homo sapiens

>  <Target Description>
Target is a single protein chain

>  <Sequence Accession>
P10635

>  <Reference>
Bioorg Med Chem Lett 14 (9), 2025-2030 (2004)

>  <Pubmed ID>
15080972

>  <DOI>
10.1016/j.bmcl.2004.02.078

$$$$
97260
Actelion Java MolfileCreator 1.0

 40 43  0  0  0  0  0  0  0  0999 V2000
    0.0000   -0.0000   -0.0000 F   0  0  0  0  0  0  0  0  0  0  0  0
   -1.5186   -0.0121   -0.0000 C   0  0  0  0  0  0  0  0  0  0  0  0
   -3.0492   -0.0241   -0.0000 F   0  0  0  0  0  0  0  0  0  0  0  0
   -1.5547    1.5065   -0.0000 F   0  0  0  0  0  0  0  0  0  0  0  0
   -1.5186   -1.5065   -0.0000 C   0  0  0  0  0  0  0  0  0  0  0  0
   -0.2169   -2.2538   -0.0000 C   0  0  0  0  0  0  0  0  0  0  0  0
   -2.8323   -2.2538   -0.0000 C   0  0  0  0  0  0  0  0  0  0  0  0
   -0.2290   -3.7483   -0.0000 C   0  0  0  0  0  0  0  0  0  0  0  0
   -2.8443   -3.7483   -0.0000 C   0  0  0  0  0  0  0  0  0  0  0  0
   -1.5547   -4.4955   -0.0000 C   0  0  0  0  0  0  0  0  0  0  0  0
   -1.5668   -6.0021   -0.0000 C   0  0  0  0  0  0  0  0  0  0  0  0
   -2.6274   -6.5565   -0.0000 O   0  0  0  0  0  0  0  0  0  0  0  0
   -0.2652   -6.7493   -0.0000 N   0  0  0  0  0  0  0  0  0  0  0  0
   -0.2772   -8.2558   -0.0000 C   0  0  0  0  0  0  0  0  0  0  0  0
   -1.5909   -9.0031   -0.0000 C   0  0  0  0  0  0  0  0  0  0  0  0
   -1.6030  -10.4976   -0.0000 N   0  0  0  0  0  0  0  0  0  0  0  0
   -3.0613   -8.5933   -0.0000 C   0  0  0  0  0  0  0  0  0  0  0  0
   -2.9167  -11.2448   -0.0000 C   0  0  0  0  0  0  0  0  0  0  0  0
   -0.3134  -11.2448   -0.0000 C   0  0  0  0  0  0  0  0  0  0  0  0
   -4.1460   -9.6419   -0.0000 C   0  0  0  0  0  0  0  0  0  0  0  0
   -3.4590   -7.0988   -0.0000 C   0  0  0  0  0  0  0  0  0  0  0  0
   -2.9287  -12.7393   -0.0000 C   0  0  0  0  0  0  0  0  0  0  0  0
   -0.3254  -12.7393   -0.0000 C   0  0  0  0  0  0  0  0  0  0  0  0
   -5.6164   -9.2441   -0.0000 C   0  0  0  0  0  0  0  0  0  0  0  0
   -4.9415   -6.6890   -0.0000 C   0  0  0  0  0  0  0  0  0  0  0  0
   -1.6391  -13.4865   -0.0000 N   0  0  0  0  0  0  0  0  0  0  0  0
   -6.0382   -7.7617   -0.0000 C   0  0  0  0  0  0  0  0  0  0  0  0
   -1.6512  -14.9810   -0.0000 C   0  0  0  0  0  0  0  0  0  0  0  0
   -0.3616  -15.7283   -0.0000 C   0  0  0  0  0  0  0  0  0  0  0  0
    0.9280  -14.9569   -0.0000 O   0  0  0  0  0  0  0  0  0  0  0  0
   -0.3736  -17.2469   -0.0000 C   0  0  0  0  0  0  0  0  0  0  0  0
    0.9160  -17.9821   -0.0000 O   0  0  0  0  0  0  0  0  0  0  0  0
    0.9039  -19.4886   -0.0000 C   0  0  0  0  0  0  0  0  0  0  0  0
    2.1935  -20.2358   -0.0000 C   0  0  0  0  0  0  0  0  0  0  0  0
   -0.4218  -20.2358   -0.0000 C   0  0  0  0  0  0  0  0  0  0  0  0
    2.1815  -21.7303   -0.0000 C   0  0  0  0  0  0  0  0  0  0  0  0
   -0.4339  -21.7303   -0.0000 C   0  0  0  0  0  0  0  0  0  0  0  0
    0.8678  -22.4776   -0.0000 C   0  0  0  0  0  0  0  0  0  0  0  0
    0.8557  -23.9721   -0.0000 O   0  0  0  0  0  0  0  0  0  0  0  0
    2.1453  -24.7193   -0.0000 C   0  0  0  0  0  0  0  0  0  0  0  0
  1  2  1  0  0  0  0
  2  3  1  0  0  0  0
  2  4  1  0  0  0  0
  2  5  1  0  0  0  0
  5  6  2  0  0  0  0
  5  7  1  0  0  0  0
  6  8  1  0  0  0  0
  7  9  2  0  0  0  0
  8 10  2  0  0  0  0
 10 11  1  0  0  0  0
 11 12  2  0  0  0  0
 11 13  1  0  0  0  0
 13 14  1  0  0  0  0
 14 15  1  0  0  0  0
 15 16  1  0  0  0  0
 15 17  1  0  0  0  0
 16 18  1  0  0  0  0
 16 19  1  0  0  0  0
 17 20  2  0  0  0  0
 17 21  1  0  0  0  0
 18 22  1  0  0  0  0
 19 23  1  0  0  0  0
 20 24  1  0  0  0  0
 21 25  2  0  0  0  0
 22 26  1  0  0  0  0
 24 27  2  0  0  0  0
 26 28  1  0  0  0  0
 28 29  1  0  0  0  0
 29 30  1  0  0  0  0
 29 31  1  0  0  0  0
 31 32  1  0  0  0  0
 32 33  1  0  0  0  0
 33 34  2  0  0  0  0
 33 35  1  0  0  0  0
 34 36  1  0  0  0  0
 35 37  2  0  0  0  0
 36 38  2  0  0  0  0
 38 39  1  0  0  0  0
 39 40  1  0  0  0  0
  9 10  1  0  0  0  0
 23 26  1  0  0  0  0
 25 27  1  0  0  0  0
 37 38  1  0  0  0  0
M  END
>  <MolRegNo>
97260

>  <m>
=

>  <Value>
3000

>  <Unit>
nM

>  <Type>
Ki

>  <pValue>
5.52

>  <Ligand Efficiency>
0

>  <Binding Efficiency>
0

>  <Surface Efficiency>
0

>  <Assay Index>
51650

>  <Assay Category>


>  <Assay Organism>


>  <Target ID>
11365

>  <Target Name>
Cytochrome P450 2D6

>  <Target Organism>
Homo sapiens

>  <Target Description>
Target is a single protein chain

>  <Sequence Accession>
P10635

>  <Reference>
Bioorg Med Chem Lett 14 (9), 2025-2030 (2004)

>  <Pubmed ID>
15080972

>  <DOI>
10.1016/j.bmcl.2004.02.078

$$$$
97375
Actelion Java MolfileCreator 1.0

 35 38  0  0  0  0  0  0  0  0999 V2000
    0.0000   -0.0000   -0.0000 F   0  0  0  0  0  0  0  0  0  0  0  0
   -0.0120   -1.4973   -0.0000 C   0  0  0  0  0  0  0  0  0  0  0  0
   -1.3296   -2.2400   -0.0000 C   0  0  0  0  0  0  0  0  0  0  0  0
    1.2937   -2.2400   -0.0000 C   0  0  0  0  0  0  0  0  0  0  0  0
   -1.3416   -3.7373   -0.0000 C   0  0  0  0  0  0  0  0  0  0  0  0
    1.2817   -3.7373   -0.0000 C   0  0  0  0  0  0  0  0  0  0  0  0
   -0.0479   -4.4800   -0.0000 C   0  0  0  0  0  0  0  0  0  0  0  0
   -0.0599   -5.9773   -0.0000 C   0  0  0  0  0  0  0  0  0  0  0  0
   -1.1020   -6.5403   -0.0000 O   0  0  0  0  0  0  0  0  0  0  0  0
    1.2458   -6.7200   -0.0000 N   0  0  0  0  0  0  0  0  0  0  0  0
    1.2338   -8.2293   -0.0000 C   0  0  0  0  0  0  0  0  0  0  0  0
   -0.0839   -8.9720   -0.0000 C   0  0  0  0  0  0  0  0  0  0  0  0
   -0.0958  -10.4693   -0.0000 N   0  0  0  0  0  0  0  0  0  0  0  0
   -1.5572   -8.5527   -0.0000 C   0  0  0  0  0  0  0  0  0  0  0  0
   -1.4135  -11.2120   -0.0000 C   0  0  0  0  0  0  0  0  0  0  0  0
    1.1979  -11.2120   -0.0000 C   0  0  0  0  0  0  0  0  0  0  0  0
   -1.9525   -7.0674   -0.0000 C   0  0  0  0  0  0  0  0  0  0  0  0
   -2.6473   -9.6188   -0.0000 C   0  0  0  0  0  0  0  0  0  0  0  0
   -1.4255  -12.7093   -0.0000 C   0  0  0  0  0  0  0  0  0  0  0  0
    1.1859  -12.7093   -0.0000 C   0  0  0  0  0  0  0  0  0  0  0  0
   -3.4379   -6.6481   -0.0000 C   0  0  0  0  0  0  0  0  0  0  0  0
   -4.1207   -9.2236   -0.0000 C   0  0  0  0  0  0  0  0  0  0  0  0
   -0.1318  -13.4520   -0.0000 N   0  0  0  0  0  0  0  0  0  0  0  0
   -4.5279   -7.7142   -0.0000 C   0  0  0  0  0  0  0  0  0  0  0  0
   -0.1437  -14.9493   -0.0000 C   0  0  0  0  0  0  0  0  0  0  0  0
    1.1499  -15.6920   -0.0000 C   0  0  0  0  0  0  0  0  0  0  0  0
    2.4436  -14.9254   -0.0000 O   0  0  0  0  0  0  0  0  0  0  0  0
    1.1380  -17.2013   -0.0000 C   0  0  0  0  0  0  0  0  0  0  0  0
    2.4317  -17.9320   -0.0000 O   0  0  0  0  0  0  0  0  0  0  0  0
    2.4197  -19.4413   -0.0000 C   0  0  0  0  0  0  0  0  0  0  0  0
    1.0901  -20.1840   -0.0000 C   0  0  0  0  0  0  0  0  0  0  0  0
    3.7134  -20.1840   -0.0000 C   0  0  0  0  0  0  0  0  0  0  0  0
    1.0781  -21.6813   -0.0000 C   0  0  0  0  0  0  0  0  0  0  0  0
    3.7014  -21.6813   -0.0000 C   0  0  0  0  0  0  0  0  0  0  0  0
    2.3837  -22.4240   -0.0000 C   0  0  0  0  0  0  0  0  0  0  0  0
  1  2  1  0  0  0  0
  2  3  2  0  0  0  0
  2  4  1  0  0  0  0
  3  5  1  0  0  0  0
  4  6  2  0  0  0  0
  5  7  2  0  0  0  0
  7  8  1  0  0  0  0
  8  9  2  0  0  0  0
  8 10  1  0  0  0  0
 10 11  1  0  0  0  0
 11 12  1  0  0  0  0
 12 13  1  0  0  0  0
 12 14  1  0  0  0  0
 13 15  1  0  0  0  0
 13 16  1  0  0  0  0
 14 17  2  0  0  0  0
 14 18  1  0  0  0  0
 15 19  1  0  0  0  0
 16 20  1  0  0  0  0
 17 21  1  0  0  0  0
 18 22  2  0  0  0  0
 19 23  1  0  0  0  0
 21 24  2  0  0  0  0
 23 25  1  0  0  0  0
 25 26  1  0  0  0  0
 26 27  1  0  0  0  0
 26 28  1  0  0  0  0
 28 29  1  0  0  0  0
 29 30  1  0  0  0  0
 30 31  2  0  0  0  0
 30 32  1  0  0  0  0
 31 33  1  0  0  0  0
 32 34  2  0  0  0  0
 33 35  2  0  0  0  0
  6  7  1  0  0  0  0
 20 23  1  0  0  0  0
 22 24  1  0  0  0  0
 34 35  1  0  0  0  0
M  END
>  <MolRegNo>
97375

>  <m>
=

>  <Value>
7000

>  <Unit>
nM

>  <Type>
Ki

>  <pValue>
5.16

>  <Ligand Efficiency>
0

>  <Binding Efficiency>
0

>  <Surface Efficiency>
0

>  <Assay Index>
51650

>  <Assay Category>


>  <Assay Organism>


>  <Target ID>
11365

>  <Target Name>
Cytochrome P450 2D6

>  <Target Organism>
Homo sapiens

>  <Target Description>
Target is a single protein chain

>  <Sequence Accession>
P10635

>  <Reference>
Bioorg Med Chem Lett 14 (9), 2025-2030 (2004)

>  <Pubmed ID>
15080972

>  <DOI>
10.1016/j.bmcl.2004.02.078

$$$$
96999
Actelion Java MolfileCreator 1.0

 40 43  0  0  0  0  0  0  0  0999 V2000
    0.0000   -0.0000   -0.0000 Br  0  0  0  0  0  0  0  0  0  0  0  0
    1.4823    0.0237   -0.0000 C   0  0  0  0  0  0  0  0  0  0  0  0
    2.2176   -1.2570   -0.0000 C   0  0  0  0  0  0  0  0  0  0  0  0
    2.2176    1.3400   -0.0000 C   0  0  0  0  0  0  0  0  0  0  0  0
    3.7118   -1.2452   -0.0000 C   0  0  0  0  0  0  0  0  0  0  0  0
    3.7118    1.3519   -0.0000 C   0  0  0  0  0  0  0  0  0  0  0  0
    4.4470    0.0593   -0.0000 C   0  0  0  0  0  0  0  0  0  0  0  0
    5.9294    0.0712   -0.0000 O   0  0  0  0  0  0  0  0  0  0  0  0
    6.6646   -1.2096   -0.0000 C   0  0  0  0  0  0  0  0  0  0  0  0
    8.1470   -1.1740   -0.0000 C   0  0  0  0  0  0  0  0  0  0  0  0
    8.8822   -2.4548   -0.0000 O   0  0  0  0  0  0  0  0  0  0  0  0
    8.8822    0.1304   -0.0000 C   0  0  0  0  0  0  0  0  0  0  0  0
    8.0995    1.4468   -0.0000 N   0  0  0  0  0  0  0  0  0  0  0  0
    6.5935    1.4586   -0.0000 C   0  0  0  0  0  0  0  0  0  0  0  0
    8.8348    2.7512   -0.0000 C   0  0  0  0  0  0  0  0  0  0  0  0
    5.8345    2.7631   -0.0000 C   0  0  0  0  0  0  0  0  0  0  0  0
    8.0758    4.0557   -0.0000 C   0  0  0  0  0  0  0  0  0  0  0  0
    6.5697    4.0675   -0.0000 N   0  0  0  0  0  0  0  0  0  0  0  0
    5.8108    5.3720   -0.0000 C   0  0  0  0  0  0  0  0  0  0  0  0
    4.3047    5.3839   -0.0000 C   0  0  0  0  0  0  0  0  0  0  0  0
    6.5460    6.6883   -0.0000 C   0  0  0  0  0  0  0  0  0  0  0  0
    3.5458    4.1031   -0.0000 C   0  0  0  0  0  0  0  0  0  0  0  0
    3.5458    6.7002   -0.0000 C   0  0  0  0  0  0  0  0  0  0  0  0
    5.7871    7.9928   -0.0000 N   0  0  0  0  0  0  0  0  0  0  0  0
    2.0278    4.1150   -0.0000 C   0  0  0  0  0  0  0  0  0  0  0  0
    2.0278    6.7120   -0.0000 C   0  0  0  0  0  0  0  0  0  0  0  0
    4.2810    8.0046   -0.0000 S   0  0  0  0  0  0  0  0  0  0  0  0
    1.2689    5.4194   -0.0000 C   0  0  0  0  0  0  0  0  0  0  0  0
    2.7749    8.0165   -0.0000 O   0  0  0  0  0  0  0  0  0  0  0  0
    4.2691    6.5223   -0.0000 O   0  0  0  0  0  0  0  0  0  0  0  0
    4.2691    9.5107   -0.0000 C   0  0  0  0  0  0  0  0  0  0  0  0
    2.9647   10.2697   -0.0000 C   0  0  0  0  0  0  0  0  0  0  0  0
    5.5499   10.2697   -0.0000 C   0  0  0  0  0  0  0  0  0  0  0  0
    1.6484    9.5107   -0.0000 O   0  0  0  0  0  0  0  0  0  0  0  0
    2.9528   11.7757   -0.0000 C   0  0  0  0  0  0  0  0  0  0  0  0
    5.5380   11.7757   -0.0000 C   0  0  0  0  0  0  0  0  0  0  0  0
    1.6484    8.0284   -0.0000 C   0  0  0  0  0  0  0  0  0  0  0  0
    4.2336   12.5347   -0.0000 C   0  0  0  0  0  0  0  0  0  0  0  0
    6.8306   12.5465   -0.0000 O   0  0  0  0  0  0  0  0  0  0  0  0
    8.1232   11.8113   -0.0000 C   0  0  0  0  0  0  0  0  0  0  0  0
  1  2  1  0  0  0  0
  2  3  2  0  0  0  0
  2  4  1  0  0  0  0
  3  5  1  0  0  0  0
  4  6  2  0  0  0  0
  5  7  2  0  0  0  0
  7  8  1  0  0  0  0
  8  9  1  0  0  0  0
  9 10  1  0  0  0  0
 10 11  1  0  0  0  0
 10 12  1  0  0  0  0
 12 13  1  0  0  0  0
 13 14  1  0  0  0  0
 13 15  1  0  0  0  0
 14 16  1  0  0  0  0
 15 17  1  0  0  0  0
 16 18  1  0  0  0  0
 18 19  1  0  0  0  0
 19 20  1  0  0  0  0
 19 21  1  0  0  0  0
 20 22  2  0  0  0  0
 20 23  1  0  0  0  0
 21 24  1  0  0  0  0
 22 25  1  0  0  0  0
 23 26  2  0  0  0  0
 24 27  1  0  0  0  0
 25 28  2  0  0  0  0
 27 29  2  0  0  0  0
 27 30  2  0  0  0  0
 27 31  1  0  0  0  0
 31 32  2  0  0  0  0
 31 33  1  0  0  0  0
 32 34  1  0  0  0  0
 32 35  1  0  0  0  0
 33 36  2  0  0  0  0
 34 37  1  0  0  0  0
 35 38  2  0  0  0  0
 36 39  1  0  0  0  0
 39 40  1  0  0  0  0
  6  7  1  0  0  0  0
 17 18  1  0  0  0  0
 26 28  1  0  0  0  0
 36 38  1  0  0  0  0
M  END
>  <MolRegNo>
96999

>  <m>
=

>  <Value>
30000

>  <Unit>
nM

>  <Type>
Ki

>  <pValue>
4.52

>  <Ligand Efficiency>
0

>  <Binding Efficiency>
0

>  <Surface Efficiency>
0

>  <Assay Index>
51650

>  <Assay Category>


>  <Assay Organism>


>  <Target ID>
11365

>  <Target Name>
Cytochrome P450 2D6

>  <Target Organism>
Homo sapiens

>  <Target Description>
Target is a single protein chain

>  <Sequence Accession>
P10635

>  <Reference>
Bioorg Med Chem Lett 14 (9), 2025-2030 (2004)

>  <Pubmed ID>
15080972

>  <DOI>
10.1016/j.bmcl.2004.02.078

$$$$
97851
Actelion Java MolfileCreator 1.0

 40 43  0  0  0  0  0  0  0  0999 V2000
    0.0000   -0.0000   -0.0000 F   0  0  0  0  0  0  0  0  0  0  0  0
    1.2992   -0.7509   -0.0000 C   0  0  0  0  0  0  0  0  0  0  0  0
    2.0381    0.5721   -0.0000 F   0  0  0  0  0  0  0  0  0  0  0  0
    0.5244   -2.0500   -0.0000 F   0  0  0  0  0  0  0  0  0  0  0  0
    2.5983   -1.5018   -0.0000 C   0  0  0  0  0  0  0  0  0  0  0  0
    2.5864   -2.9916   -0.0000 C   0  0  0  0  0  0  0  0  0  0  0  0
    3.8975   -0.7390   -0.0000 C   0  0  0  0  0  0  0  0  0  0  0  0
    3.8736   -3.7306   -0.0000 C   0  0  0  0  0  0  0  0  0  0  0  0
    5.1847   -1.4779   -0.0000 C   0  0  0  0  0  0  0  0  0  0  0  0
    5.1728   -2.9678   -0.0000 C   0  0  0  0  0  0  0  0  0  0  0  0
    6.4600   -3.7068   -0.0000 C   0  0  0  0  0  0  0  0  0  0  0  0
    6.4481   -5.1966   -0.0000 N   0  0  0  0  0  0  0  0  0  0  0  0
    7.7473   -2.9440   -0.0000 C   0  0  0  0  0  0  0  0  0  0  0  0
    7.7353   -5.9356   -0.0000 C   0  0  0  0  0  0  0  0  0  0  0  0
    5.1370   -5.9356   -0.0000 C   0  0  0  0  0  0  0  0  0  0  0  0
    7.7353   -1.4303   -0.0000 O   0  0  0  0  0  0  0  0  0  0  0  0
    9.0345   -3.6829   -0.0000 N   0  0  0  0  0  0  0  0  0  0  0  0
    7.7234   -7.4374   -0.0000 C   0  0  0  0  0  0  0  0  0  0  0  0
    5.1251   -7.4374   -0.0000 C   0  0  0  0  0  0  0  0  0  0  0  0
   10.3217   -2.9201   -0.0000 C   0  0  0  0  0  0  0  0  0  0  0  0
    6.4123   -8.1763   -0.0000 N   0  0  0  0  0  0  0  0  0  0  0  0
   10.3098   -1.4064   -0.0000 C   0  0  0  0  0  0  0  0  0  0  0  0
    6.4004   -9.6662   -0.0000 C   0  0  0  0  0  0  0  0  0  0  0  0
    8.9987   -0.6436   -0.0000 C   0  0  0  0  0  0  0  0  0  0  0  0
   11.6090   -0.6436   -0.0000 C   0  0  0  0  0  0  0  0  0  0  0  0
    7.6877  -10.4052   -0.0000 C   0  0  0  0  0  0  0  0  0  0  0  0
    8.9868    0.8701   -0.0000 C   0  0  0  0  0  0  0  0  0  0  0  0
   11.5970    0.8701   -0.0000 C   0  0  0  0  0  0  0  0  0  0  0  0
    8.9749   -9.6424   -0.0000 O   0  0  0  0  0  0  0  0  0  0  0  0
    7.6757  -11.8950   -0.0000 C   0  0  0  0  0  0  0  0  0  0  0  0
   10.2741    1.6448   -0.0000 C   0  0  0  0  0  0  0  0  0  0  0  0
    8.9630  -12.6340   -0.0000 O   0  0  0  0  0  0  0  0  0  0  0  0
    8.9511  -14.1238   -0.0000 C   0  0  0  0  0  0  0  0  0  0  0  0
   10.2383  -14.8628   -0.0000 C   0  0  0  0  0  0  0  0  0  0  0  0
    7.6400  -14.8628   -0.0000 C   0  0  0  0  0  0  0  0  0  0  0  0
   10.2264  -16.3646   -0.0000 C   0  0  0  0  0  0  0  0  0  0  0  0
   11.5375  -14.0881   -0.0000 C   0  0  0  0  0  0  0  0  0  0  0  0
    7.6281  -16.3646   -0.0000 C   0  0  0  0  0  0  0  0  0  0  0  0
    6.3170  -14.0881   -0.0000 C   0  0  0  0  0  0  0  0  0  0  0  0
    8.9153  -17.1036   -0.0000 C   0  0  0  0  0  0  0  0  0  0  0  0
  1  2  1  0  0  0  0
  2  3  1  0  0  0  0
  2  4  1  0  0  0  0
  2  5  1  0  0  0  0
  5  6  2  0  0  0  0
  5  7  1  0  0  0  0
  6  8  1  0  0  0  0
  7  9  2  0  0  0  0
  8 10  2  0  0  0  0
 10 11  1  0  0  0  0
 11 12  1  0  0  0  0
 11 13  1  0  0  0  0
 12 14  1  0  0  0  0
 12 15  1  0  0  0  0
 13 16  2  0  0  0  0
 13 17  1  0  0  0  0
 14 18  1  0  0  0  0
 15 19  1  0  0  0  0
 17 20  1  0  0  0  0
 18 21  1  0  0  0  0
 20 22  1  0  0  0  0
 21 23  1  0  0  0  0
 22 24  2  0  0  0  0
 22 25  1  0  0  0  0
 23 26  1  0  0  0  0
 24 27  1  0  0  0  0
 25 28  2  0  0  0  0
 26 29  1  0  0  0  0
 26 30  1  0  0  0  0
 27 31  2  0  0  0  0
 30 32  1  0  0  0  0
 32 33  1  0  0  0  0
 33 34  2  0  0  0  0
 33 35  1  0  0  0  0
 34 36  1  0  0  0  0
 34 37  1  0  0  0  0
 35 38  2  0  0  0  0
 35 39  1  0  0  0  0
 36 40  2  0  0  0  0
  9 10  1  0  0  0  0
 19 21  1  0  0  0  0
 28 31  1  0  0  0  0
 38 40  1  0  0  0  0
M  END
>  <MolRegNo>
97851

>  <m>
=

>  <Value>
1000

>  <Unit>
nM

>  <Type>
Ki

>  <pValue>
6

>  <Ligand Efficiency>
0

>  <Binding Efficiency>
0

>  <Surface Efficiency>
0

>  <Assay Index>
51650

>  <Assay Category>


>  <Assay Organism>


>  <Target ID>
11365

>  <Target Name>
Cytochrome P450 2D6

>  <Target Organism>
Homo sapiens

>  <Target Description>
Target is a single protein chain

>  <Sequence Accession>
P10635

>  <Reference>
Bioorg Med Chem Lett 14 (9), 2025-2030 (2004)

>  <Pubmed ID>
15080972

>  <DOI>
10.1016/j.bmcl.2004.02.078

$$$$
97457
Actelion Java MolfileCreator 1.0

 37 40  0  0  0  0  0  0  0  0999 V2000
    0.0000   -0.0000   -0.0000 Cl  0  0  0  0  0  0  0  0  0  0  0  0
   -0.0119    1.5078   -0.0000 C   0  0  0  0  0  0  0  0  0  0  0  0
   -1.3179    2.2677   -0.0000 C   0  0  0  0  0  0  0  0  0  0  0  0
    1.2704    2.2677   -0.0000 C   0  0  0  0  0  0  0  0  0  0  0  0
   -1.3297    3.7755   -0.0000 C   0  0  0  0  0  0  0  0  0  0  0  0
    1.2585    3.7755   -0.0000 C   0  0  0  0  0  0  0  0  0  0  0  0
   -0.0475    4.5354   -0.0000 C   0  0  0  0  0  0  0  0  0  0  0  0
   -0.0594    6.0551   -0.0000 O   0  0  0  0  0  0  0  0  0  0  0  0
   -1.3654    6.8031   -0.0000 C   0  0  0  0  0  0  0  0  0  0  0  0
   -1.3772    8.3228   -0.0000 C   0  0  0  0  0  0  0  0  0  0  0  0
   -0.0950    9.0826   -0.0000 O   0  0  0  0  0  0  0  0  0  0  0  0
   -2.6832    9.0826   -0.0000 C   0  0  0  0  0  0  0  0  0  0  0  0
   -2.6951   10.5905   -0.0000 N   0  0  0  0  0  0  0  0  0  0  0  0
   -4.0011   11.3503   -0.0000 C   0  0  0  0  0  0  0  0  0  0  0  0
   -1.4129   11.3503   -0.0000 C   0  0  0  0  0  0  0  0  0  0  0  0
   -4.0130   12.8581   -0.0000 C   0  0  0  0  0  0  0  0  0  0  0  0
   -1.4247   12.8581   -0.0000 C   0  0  0  0  0  0  0  0  0  0  0  0
   -2.7307   13.6180   -0.0000 N   0  0  0  0  0  0  0  0  0  0  0  0
   -2.7426   15.1258   -0.0000 C   0  0  0  0  0  0  0  0  0  0  0  0
   -4.2029   15.5414   -0.0000 C   0  0  0  0  0  0  0  0  0  0  0  0
   -1.4603   15.8857   -0.0000 C   0  0  0  0  0  0  0  0  0  0  0  0
   -4.5947   17.0136   -0.0000 C   0  0  0  0  0  0  0  0  0  0  0  0
   -5.2834   14.4847   -0.0000 C   0  0  0  0  0  0  0  0  0  0  0  0
   -1.4722   17.4054   -0.0000 N   0  0  0  0  0  0  0  0  0  0  0  0
   -6.0670   17.4291   -0.0000 C   0  0  0  0  0  0  0  0  0  0  0  0
   -6.7437   14.8765   -0.0000 C   0  0  0  0  0  0  0  0  0  0  0  0
   -2.7782   18.1653   -0.0000 C   0  0  0  0  0  0  0  0  0  0  0  0
   -7.1592   16.3725   -0.0000 C   0  0  0  0  0  0  0  0  0  0  0  0
   -3.8230   17.6072   -0.0000 O   0  0  0  0  0  0  0  0  0  0  0  0
   -2.7901   19.6731   -0.0000 C   0  0  0  0  0  0  0  0  0  0  0  0
   -4.0961   20.4329   -0.0000 C   0  0  0  0  0  0  0  0  0  0  0  0
   -1.5078   20.4329   -0.0000 C   0  0  0  0  0  0  0  0  0  0  0  0
   -4.1080   21.9289   -0.0000 C   0  0  0  0  0  0  0  0  0  0  0  0
   -1.5197   21.9289   -0.0000 C   0  0  0  0  0  0  0  0  0  0  0  0
   -2.8257   22.7006   -0.0000 C   0  0  0  0  0  0  0  0  0  0  0  0
   -2.8376   24.1847   -0.0000 O   0  0  0  0  0  0  0  0  0  0  0  0
   -4.1554   24.9446   -0.0000 C   0  0  0  0  0  0  0  0  0  0  0  0
  1  2  1  0  0  0  0
  2  3  2  0  0  0  0
  2  4  1  0  0  0  0
  3  5  1  0  0  0  0
  4  6  2  0  0  0  0
  5  7  2  0  0  0  0
  7  8  1  0  0  0  0
  8  9  1  0  0  0  0
  9 10  1  0  0  0  0
 10 11  1  0  0  0  0
 10 12  1  0  0  0  0
 12 13  1  0  0  0  0
 13 14  1  0  0  0  0
 13 15  1  0  0  0  0
 14 16  1  0  0  0  0
 15 17  1  0  0  0  0
 16 18  1  0  0  0  0
 18 19  1  0  0  0  0
 19 20  1  0  0  0  0
 19 21  1  0  0  0  0
 20 22  2  0  0  0  0
 20 23  1  0  0  0  0
 21 24  1  0  0  0  0
 22 25  1  0  0  0  0
 23 26  2  0  0  0  0
 24 27  1  0  0  0  0
 25 28  2  0  0  0  0
 27 29  2  0  0  0  0
 27 30  1  0  0  0  0
 30 31  2  0  0  0  0
 30 32  1  0  0  0  0
 31 33  1  0  0  0  0
 32 34  2  0  0  0  0
 33 35  2  0  0  0  0
 35 36  1  0  0  0  0
 36 37  1  0  0  0  0
  6  7  1  0  0  0  0
 17 18  1  0  0  0  0
 26 28  1  0  0  0  0
 34 35  1  0  0  0  0
M  END
>  <MolRegNo>
97457

>  <m>
=

>  <Value>
4000

>  <Unit>
nM

>  <Type>
Ki

>  <pValue>
5.4

>  <Ligand Efficiency>
0

>  <Binding Efficiency>
0

>  <Surface Efficiency>
0

>  <Assay Index>
51650

>  <Assay Category>


>  <Assay Organism>


>  <Target ID>
11365

>  <Target Name>
Cytochrome P450 2D6

>  <Target Organism>
Homo sapiens

>  <Target Description>
Target is a single protein chain

>  <Sequence Accession>
P10635

>  <Reference>
Bioorg Med Chem Lett 14 (9), 2025-2030 (2004)

>  <Pubmed ID>
15080972

>  <DOI>
10.1016/j.bmcl.2004.02.078

$$$$
97439
Actelion Java MolfileCreator 1.0

 36 39  0  0  0  0  0  0  0  0999 V2000
    0.0000   -0.0000   -0.0000 O   0  0  0  0  0  0  0  0  0  0  0  0
    1.0167    0.5861   -0.0000 C   0  0  0  0  0  0  0  0  0  0  0  0
    2.3204   -0.1555   -0.0000 N   0  0  0  0  0  0  0  0  0  0  0  0
    1.0047    2.1051   -0.0000 C   0  0  0  0  0  0  0  0  0  0  0  0
    2.3084   -1.6506   -0.0000 C   0  0  0  0  0  0  0  0  0  0  0  0
   -0.3110    2.8706   -0.0000 C   0  0  0  0  0  0  0  0  0  0  0  0
    2.3084    2.8706   -0.0000 C   0  0  0  0  0  0  0  0  0  0  0  0
    0.9927   -2.3922   -0.0000 C   0  0  0  0  0  0  0  0  0  0  0  0
   -0.3229    4.4016   -0.0000 C   0  0  0  0  0  0  0  0  0  0  0  0
    2.2965    4.4016   -0.0000 C   0  0  0  0  0  0  0  0  0  0  0  0
    0.9808   -3.8873   -0.0000 N   0  0  0  0  0  0  0  0  0  0  0  0
   -0.4784   -1.9975   -0.0000 C   0  0  0  0  0  0  0  0  0  0  0  0
    0.9688    5.1551   -0.0000 C   0  0  0  0  0  0  0  0  0  0  0  0
   -0.3349   -4.6288   -0.0000 C   0  0  0  0  0  0  0  0  0  0  0  0
    2.2726   -4.6288   -0.0000 C   0  0  0  0  0  0  0  0  0  0  0  0
   -1.5669   -3.0500   -0.0000 C   0  0  0  0  0  0  0  0  0  0  0  0
   -0.8731   -0.5024   -0.0000 C   0  0  0  0  0  0  0  0  0  0  0  0
   -0.3469   -6.1359   -0.0000 C   0  0  0  0  0  0  0  0  0  0  0  0
    2.2606   -6.1359   -0.0000 C   0  0  0  0  0  0  0  0  0  0  0  0
   -3.0380   -2.6553   -0.0000 C   0  0  0  0  0  0  0  0  0  0  0  0
   -2.3563   -0.1076   -0.0000 C   0  0  0  0  0  0  0  0  0  0  0  0
    0.9449   -6.8775   -0.0000 N   0  0  0  0  0  0  0  0  0  0  0  0
   -3.4567   -1.1722   -0.0000 C   0  0  0  0  0  0  0  0  0  0  0  0
    0.9329   -8.3726   -0.0000 C   0  0  0  0  0  0  0  0  0  0  0  0
    2.2247   -9.1141   -0.0000 C   0  0  0  0  0  0  0  0  0  0  0  0
    3.5165   -8.3487   -0.0000 O   0  0  0  0  0  0  0  0  0  0  0  0
    2.2128  -10.6092   -0.0000 C   0  0  0  0  0  0  0  0  0  0  0  0
    3.5045  -11.3508   -0.0000 O   0  0  0  0  0  0  0  0  0  0  0  0
    3.4926  -12.8459   -0.0000 C   0  0  0  0  0  0  0  0  0  0  0  0
    4.7843  -13.5875   -0.0000 C   0  0  0  0  0  0  0  0  0  0  0  0
    2.1649  -13.5875   -0.0000 C   0  0  0  0  0  0  0  0  0  0  0  0
    4.7724  -15.0946   -0.0000 C   0  0  0  0  0  0  0  0  0  0  0  0
    2.1529  -15.0946   -0.0000 C   0  0  0  0  0  0  0  0  0  0  0  0
    3.4567  -15.8361   -0.0000 C   0  0  0  0  0  0  0  0  0  0  0  0
    3.4567  -17.3073   -0.0000 O   0  0  0  0  0  0  0  0  0  0  0  0
    4.7484  -18.0489   -0.0000 C   0  0  0  0  0  0  0  0  0  0  0  0
  1  2  2  0  0  0  0
  2  3  1  0  0  0  0
  2  4  1  0  0  0  0
  3  5  1  0  0  0  0
  4  6  2  0  0  0  0
  4  7  1  0  0  0  0
  5  8  1  0  0  0  0
  6  9  1  0  0  0  0
  7 10  2  0  0  0  0
  8 11  1  0  0  0  0
  8 12  1  0  0  0  0
  9 13  2  0  0  0  0
 11 14  1  0  0  0  0
 11 15  1  0  0  0  0
 12 16  2  0  0  0  0
 12 17  1  0  0  0  0
 14 18  1  0  0  0  0
 15 19  1  0  0  0  0
 16 20  1  0  0  0  0
 17 21  2  0  0  0  0
 18 22  1  0  0  0  0
 20 23  2  0  0  0  0
 22 24  1  0  0  0  0
 24 25  1  0  0  0  0
 25 26  1  0  0  0  0
 25 27  1  0  0  0  0
 27 28  1  0  0  0  0
 28 29  1  0  0  0  0
 29 30  2  0  0  0  0
 29 31  1  0  0  0  0
 30 32  1  0  0  0  0
 31 33  2  0  0  0  0
 32 34  2  0  0  0  0
 34 35  1  0  0  0  0
 35 36  1  0  0  0  0
 10 13  1  0  0  0  0
 19 22  1  0  0  0  0
 21 23  1  0  0  0  0
 33 34  1  0  0  0  0
M  END
>  <MolRegNo>
97439

>  <m>
=

>  <Value>
4000

>  <Unit>
nM

>  <Type>
Ki

>  <pValue>
5.4

>  <Ligand Efficiency>
0

>  <Binding Efficiency>
0

>  <Surface Efficiency>
0

>  <Assay Index>
51650

>  <Assay Category>


>  <Assay Organism>


>  <Target ID>
11365

>  <Target Name>
Cytochrome P450 2D6

>  <Target Organism>
Homo sapiens

>  <Target Description>
Target is a single protein chain

>  <Sequence Accession>
P10635

>  <Reference>
Bioorg Med Chem Lett 14 (9), 2025-2030 (2004)

>  <Pubmed ID>
15080972

>  <DOI>
10.1016/j.bmcl.2004.02.078

$$$$
97297
Actelion Java MolfileCreator 1.0

 37 40  0  0  0  0  0  0  0  0999 V2000
    0.0000   -0.0000   -0.0000 F   0  0  0  0  0  0  0  0  0  0  0  0
    1.3086   -0.7563   -0.0000 C   0  0  0  0  0  0  0  0  0  0  0  0
    2.6052    0.0240   -0.0000 C   0  0  0  0  0  0  0  0  0  0  0  0
    1.2966   -2.2570   -0.0000 C   0  0  0  0  0  0  0  0  0  0  0  0
    3.8897   -0.7323   -0.0000 C   0  0  0  0  0  0  0  0  0  0  0  0
    2.5932   -3.0013   -0.0000 C   0  0  0  0  0  0  0  0  0  0  0  0
    3.8777   -2.2330   -0.0000 C   0  0  0  0  0  0  0  0  0  0  0  0
    5.1743   -2.9773   -0.0000 C   0  0  0  0  0  0  0  0  0  0  0  0
    5.1623   -4.4660   -0.0000 N   0  0  0  0  0  0  0  0  0  0  0  0
    6.4589   -2.2090   -0.0000 C   0  0  0  0  0  0  0  0  0  0  0  0
    3.8537   -5.2103   -0.0000 C   0  0  0  0  0  0  0  0  0  0  0  0
    6.4589   -5.2103   -0.0000 C   0  0  0  0  0  0  0  0  0  0  0  0
    6.4469   -0.6843   -0.0000 O   0  0  0  0  0  0  0  0  0  0  0  0
    7.7555   -2.9533   -0.0000 N   0  0  0  0  0  0  0  0  0  0  0  0
    3.8417   -6.6990   -0.0000 C   0  0  0  0  0  0  0  0  0  0  0  0
    6.4469   -6.6990   -0.0000 C   0  0  0  0  0  0  0  0  0  0  0  0
    9.0400   -2.1850   -0.0000 C   0  0  0  0  0  0  0  0  0  0  0  0
    5.1263   -7.4433   -0.0000 N   0  0  0  0  0  0  0  0  0  0  0  0
    9.0280   -0.6603   -0.0000 C   0  0  0  0  0  0  0  0  0  0  0  0
    5.1143   -8.9320   -0.0000 C   0  0  0  0  0  0  0  0  0  0  0  0
   10.3126    0.1201   -0.0000 C   0  0  0  0  0  0  0  0  0  0  0  0
    7.7195    0.1201   -0.0000 C   0  0  0  0  0  0  0  0  0  0  0  0
    6.3989   -9.6763   -0.0000 C   0  0  0  0  0  0  0  0  0  0  0  0
   10.3006    1.6327   -0.0000 C   0  0  0  0  0  0  0  0  0  0  0  0
    7.7074    1.6327   -0.0000 C   0  0  0  0  0  0  0  0  0  0  0  0
    7.6834   -8.9080   -0.0000 O   0  0  0  0  0  0  0  0  0  0  0  0
    6.3869  -11.1890   -0.0000 C   0  0  0  0  0  0  0  0  0  0  0  0
    8.9920    2.4011   -0.0000 C   0  0  0  0  0  0  0  0  0  0  0  0
    7.6714  -11.9213   -0.0000 O   0  0  0  0  0  0  0  0  0  0  0  0
    7.6594  -13.4220   -0.0000 C   0  0  0  0  0  0  0  0  0  0  0  0
    8.9440  -14.1663   -0.0000 C   0  0  0  0  0  0  0  0  0  0  0  0
    6.3388  -14.1663   -0.0000 C   0  0  0  0  0  0  0  0  0  0  0  0
    8.9320  -15.6550   -0.0000 C   0  0  0  0  0  0  0  0  0  0  0  0
    6.3268  -15.6550   -0.0000 C   0  0  0  0  0  0  0  0  0  0  0  0
    7.6234  -16.3993   -0.0000 C   0  0  0  0  0  0  0  0  0  0  0  0
    7.6234  -17.8880   -0.0000 O   0  0  0  0  0  0  0  0  0  0  0  0
    8.9200  -18.6323   -0.0000 C   0  0  0  0  0  0  0  0  0  0  0  0
  1  2  1  0  0  0  0
  2  3  2  0  0  0  0
  2  4  1  0  0  0  0
  3  5  1  0  0  0  0
  4  6  2  0  0  0  0
  5  7  2  0  0  0  0
  7  8  1  0  0  0  0
  8  9  1  0  0  0  0
  8 10  1  0  0  0  0
  9 11  1  0  0  0  0
  9 12  1  0  0  0  0
 10 13  2  0  0  0  0
 10 14  1  0  0  0  0
 11 15  1  0  0  0  0
 12 16  1  0  0  0  0
 14 17  1  0  0  0  0
 15 18  1  0  0  0  0
 17 19  1  0  0  0  0
 18 20  1  0  0  0  0
 19 21  2  0  0  0  0
 19 22  1  0  0  0  0
 20 23  1  0  0  0  0
 21 24  1  0  0  0  0
 22 25  2  0  0  0  0
 23 26  1  0  0  0  0
 23 27  1  0  0  0  0
 24 28  2  0  0  0  0
 27 29  1  0  0  0  0
 29 30  1  0  0  0  0
 30 31  2  0  0  0  0
 30 32  1  0  0  0  0
 31 33  1  0  0  0  0
 32 34  2  0  0  0  0
 33 35  2  0  0  0  0
 35 36  1  0  0  0  0
 36 37  1  0  0  0  0
  6  7  1  0  0  0  0
 16 18  1  0  0  0  0
 25 28  1  0  0  0  0
 34 35  1  0  0  0  0
M  END
>  <MolRegNo>
97297

>  <m>
=

>  <Value>
5000

>  <Unit>
nM

>  <Type>
Ki

>  <pValue>
5.3

>  <Ligand Efficiency>
0

>  <Binding Efficiency>
0

>  <Surface Efficiency>
0

>  <Assay Index>
51650

>  <Assay Category>


>  <Assay Organism>


>  <Target ID>
11365

>  <Target Name>
Cytochrome P450 2D6

>  <Target Organism>
Homo sapiens

>  <Target Description>
Target is a single protein chain

>  <Sequence Accession>
P10635

>  <Reference>
Bioorg Med Chem Lett 14 (9), 2025-2030 (2004)

>  <Pubmed ID>
15080972

>  <DOI>
10.1016/j.bmcl.2004.02.078

$$$$
97406
Actelion Java MolfileCreator 1.0

 36 39  0  0  0  0  0  0  0  0999 V2000
    0.0000   -0.0000   -0.0000 Cl  0  0  0  0  0  0  0  0  0  0  0  0
   -1.3272    0.7653   -0.0000 C   0  0  0  0  0  0  0  0  0  0  0  0
   -2.6425    0.0239   -0.0000 C   0  0  0  0  0  0  0  0  0  0  0  0
   -1.3392    2.2838   -0.0000 C   0  0  0  0  0  0  0  0  0  0  0  0
   -3.9459    0.7892   -0.0000 C   0  0  0  0  0  0  0  0  0  0  0  0
   -2.6425    3.0491   -0.0000 C   0  0  0  0  0  0  0  0  0  0  0  0
   -3.9578    2.3077   -0.0000 C   0  0  0  0  0  0  0  0  0  0  0  0
   -5.2731    3.0730   -0.0000 C   0  0  0  0  0  0  0  0  0  0  0  0
   -5.2851    4.5796   -0.0000 O   0  0  0  0  0  0  0  0  0  0  0  0
   -6.5764    2.3316   -0.0000 N   0  0  0  0  0  0  0  0  0  0  0  0
   -7.8798    3.0969   -0.0000 C   0  0  0  0  0  0  0  0  0  0  0  0
   -6.5884    0.8490   -0.0000 C   0  0  0  0  0  0  0  0  0  0  0  0
   -7.8917    4.6035   -0.0000 C   0  0  0  0  0  0  0  0  0  0  0  0
   -9.1951    2.3556   -0.0000 C   0  0  0  0  0  0  0  0  0  0  0  0
   -7.8917    0.1076   -0.0000 C   0  0  0  0  0  0  0  0  0  0  0  0
   -5.2970    0.1076   -0.0000 C   0  0  0  0  0  0  0  0  0  0  0  0
   -9.1951    5.3688   -0.0000 C   0  0  0  0  0  0  0  0  0  0  0  0
  -10.5104    3.1208   -0.0000 C   0  0  0  0  0  0  0  0  0  0  0  0
   -7.9037   -1.3870   -0.0000 C   0  0  0  0  0  0  0  0  0  0  0  0
   -5.3090   -1.3870   -0.0000 C   0  0  0  0  0  0  0  0  0  0  0  0
  -10.5223    4.6274   -0.0000 C   0  0  0  0  0  0  0  0  0  0  0  0
   -6.6243   -2.1284   -0.0000 N   0  0  0  0  0  0  0  0  0  0  0  0
  -11.8496    5.3927   -0.0000 F   0  0  0  0  0  0  0  0  0  0  0  0
   -6.6362   -3.6111   -0.0000 C   0  0  0  0  0  0  0  0  0  0  0  0
   -5.3568   -4.3285   -0.0000 C   0  0  0  0  0  0  0  0  0  0  0  0
   -4.0774   -3.5872   -0.0000 O   0  0  0  0  0  0  0  0  0  0  0  0
   -5.3688   -5.8351   -0.0000 C   0  0  0  0  0  0  0  0  0  0  0  0
   -4.0894   -6.5764   -0.0000 O   0  0  0  0  0  0  0  0  0  0  0  0
   -4.1013   -8.0591   -0.0000 C   0  0  0  0  0  0  0  0  0  0  0  0
   -2.8219   -8.8005   -0.0000 C   0  0  0  0  0  0  0  0  0  0  0  0
   -5.4046   -8.8005   -0.0000 C   0  0  0  0  0  0  0  0  0  0  0  0
   -2.8338  -10.2951   -0.0000 C   0  0  0  0  0  0  0  0  0  0  0  0
   -5.4166  -10.2951   -0.0000 C   0  0  0  0  0  0  0  0  0  0  0  0
   -4.1372  -11.0365   -0.0000 C   0  0  0  0  0  0  0  0  0  0  0  0
   -4.1252  -12.5192   -0.0000 O   0  0  0  0  0  0  0  0  0  0  0  0
   -2.8458  -13.2366   -0.0000 C   0  0  0  0  0  0  0  0  0  0  0  0
  1  2  1  0  0  0  0
  2  3  2  0  0  0  0
  2  4  1  0  0  0  0
  3  5  1  0  0  0  0
  4  6  2  0  0  0  0
  5  7  2  0  0  0  0
  7  8  1  0  0  0  0
  8  9  2  0  0  0  0
  8 10  1  0  0  0  0
 10 11  1  0  0  0  0
 10 12  1  0  0  0  0
 11 13  2  0  0  0  0
 11 14  1  0  0  0  0
 12 15  1  0  0  0  0
 12 16  1  0  0  0  0
 13 17  1  0  0  0  0
 14 18  2  0  0  0  0
 15 19  1  0  0  0  0
 16 20  1  0  0  0  0
 17 21  2  0  0  0  0
 19 22  1  0  0  0  0
 21 23  1  0  0  0  0
 22 24  1  0  0  0  0
 24 25  1  0  0  0  0
 25 26  1  0  0  0  0
 25 27  1  0  0  0  0
 27 28  1  0  0  0  0
 28 29  1  0  0  0  0
 29 30  2  0  0  0  0
 29 31  1  0  0  0  0
 30 32  1  0  0  0  0
 31 33  2  0  0  0  0
 32 34  2  0  0  0  0
 34 35  1  0  0  0  0
 35 36  1  0  0  0  0
  6  7  1  0  0  0  0
 18 21  1  0  0  0  0
 20 22  1  0  0  0  0
 33 34  1  0  0  0  0
M  END
>  <MolRegNo>
97406

>  <m>
=

>  <Value>
2000

>  <Unit>
nM

>  <Type>
Ki

>  <pValue>
5.7

>  <Ligand Efficiency>
0

>  <Binding Efficiency>
0

>  <Surface Efficiency>
0

>  <Assay Index>
51650

>  <Assay Category>


>  <Assay Organism>


>  <Target ID>
11365

>  <Target Name>
Cytochrome P450 2D6

>  <Target Organism>
Homo sapiens

>  <Target Description>
Target is a single protein chain

>  <Sequence Accession>
P10635

>  <Reference>
Bioorg Med Chem Lett 14 (9), 2025-2030 (2004)

>  <Pubmed ID>
15080972

>  <DOI>
10.1016/j.bmcl.2004.02.078

$$$$
96490
Actelion Java MolfileCreator 1.0

 36 39  0  0  0  0  0  0  0  0999 V2000
    0.0000   -0.0000   -0.0000 O   0  0  0  0  0  0  0  0  0  0  0  0
   -0.0119   -1.4916   -0.0000 C   0  0  0  0  0  0  0  0  0  0  0  0
   -1.3245   -2.2314   -0.0000 N   0  0  0  0  0  0  0  0  0  0  0  0
    1.2768   -2.2314   -0.0000 C   0  0  0  0  0  0  0  0  0  0  0  0
   -2.6371   -1.4677   -0.0000 C   0  0  0  0  0  0  0  0  0  0  0  0
   -1.3365   -3.7230   -0.0000 C   0  0  0  0  0  0  0  0  0  0  0  0
    1.2649   -3.7349   -0.0000 C   0  0  0  0  0  0  0  0  0  0  0  0
    2.5774   -1.4677   -0.0000 C   0  0  0  0  0  0  0  0  0  0  0  0
   -2.6490    0.0477   -0.0000 C   0  0  0  0  0  0  0  0  0  0  0  0
   -3.9616   -2.2075   -0.0000 C   0  0  0  0  0  0  0  0  0  0  0  0
   -0.0477   -4.4628   -0.0000 C   0  0  0  0  0  0  0  0  0  0  0  0
   -2.6490   -4.4628   -0.0000 C   0  0  0  0  0  0  0  0  0  0  0  0
    2.5536   -4.4747   -0.0000 C   0  0  0  0  0  0  0  0  0  0  0  0
    3.8662   -2.2075   -0.0000 C   0  0  0  0  0  0  0  0  0  0  0  0
   -3.9616    0.8114   -0.0000 C   0  0  0  0  0  0  0  0  0  0  0  0
   -5.2742   -1.4438   -0.0000 C   0  0  0  0  0  0  0  0  0  0  0  0
   -0.0597   -5.9663   -0.0000 C   0  0  0  0  0  0  0  0  0  0  0  0
   -2.6610   -5.9663   -0.0000 C   0  0  0  0  0  0  0  0  0  0  0  0
    3.8542   -3.7110   -0.0000 C   0  0  0  0  0  0  0  0  0  0  0  0
   -5.2861    0.0716   -0.0000 C   0  0  0  0  0  0  0  0  0  0  0  0
   -1.3723   -6.7061   -0.0000 N   0  0  0  0  0  0  0  0  0  0  0  0
    5.1549   -4.4628   -0.0000 O   0  0  0  0  0  0  0  0  0  0  0  0
   -1.3842   -8.1977   -0.0000 C   0  0  0  0  0  0  0  0  0  0  0  0
    5.1430   -5.9663   -0.0000 C   0  0  0  0  0  0  0  0  0  0  0  0
   -0.0955   -8.9375   -0.0000 C   0  0  0  0  0  0  0  0  0  0  0  0
    1.1933   -8.1738   -0.0000 O   0  0  0  0  0  0  0  0  0  0  0  0
   -0.1074  -10.4291   -0.0000 C   0  0  0  0  0  0  0  0  0  0  0  0
    1.1813  -11.1689   -0.0000 O   0  0  0  0  0  0  0  0  0  0  0  0
    1.1694  -12.6605   -0.0000 C   0  0  0  0  0  0  0  0  0  0  0  0
    2.4581  -13.4003   -0.0000 C   0  0  0  0  0  0  0  0  0  0  0  0
   -0.1432  -13.4003   -0.0000 C   0  0  0  0  0  0  0  0  0  0  0  0
    2.4462  -14.9038   -0.0000 C   0  0  0  0  0  0  0  0  0  0  0  0
   -0.1551  -14.9038   -0.0000 C   0  0  0  0  0  0  0  0  0  0  0  0
    1.1336  -15.6437   -0.0000 C   0  0  0  0  0  0  0  0  0  0  0  0
    1.1336  -17.1352   -0.0000 O   0  0  0  0  0  0  0  0  0  0  0  0
    2.4223  -17.8631   -0.0000 C   0  0  0  0  0  0  0  0  0  0  0  0
  1  2  2  0  0  0  0
  2  3  1  0  0  0  0
  2  4  1  0  0  0  0
  3  5  1  0  0  0  0
  3  6  1  0  0  0  0
  4  7  2  0  0  0  0
  4  8  1  0  0  0  0
  5  9  2  0  0  0  0
  5 10  1  0  0  0  0
  6 11  1  0  0  0  0
  6 12  1  0  0  0  0
  7 13  1  0  0  0  0
  8 14  2  0  0  0  0
  9 15  1  0  0  0  0
 10 16  2  0  0  0  0
 11 17  1  0  0  0  0
 12 18  1  0  0  0  0
 13 19  2  0  0  0  0
 15 20  2  0  0  0  0
 17 21  1  0  0  0  0
 19 22  1  0  0  0  0
 21 23  1  0  0  0  0
 22 24  1  0  0  0  0
 23 25  1  0  0  0  0
 25 26  1  0  0  0  0
 25 27  1  0  0  0  0
 27 28  1  0  0  0  0
 28 29  1  0  0  0  0
 29 30  2  0  0  0  0
 29 31  1  0  0  0  0
 30 32  1  0  0  0  0
 31 33  2  0  0  0  0
 32 34  2  0  0  0  0
 34 35  1  0  0  0  0
 35 36  1  0  0  0  0
 14 19  1  0  0  0  0
 16 20  1  0  0  0  0
 18 21  1  0  0  0  0
 33 34  1  0  0  0  0
M  END
>  <MolRegNo>
96490

>  <m>
=

>  <Value>
700

>  <Unit>
nM

>  <Type>
Ki

>  <pValue>
6.16

>  <Ligand Efficiency>
0

>  <Binding Efficiency>
0

>  <Surface Efficiency>
0

>  <Assay Index>
51650

>  <Assay Category>


>  <Assay Organism>


>  <Target ID>
11365

>  <Target Name>
Cytochrome P450 2D6

>  <Target Organism>
Homo sapiens

>  <Target Description>
Target is a single protein chain

>  <Sequence Accession>
P10635

>  <Reference>
Bioorg Med Chem Lett 14 (9), 2025-2030 (2004)

>  <Pubmed ID>
15080972

>  <DOI>
10.1016/j.bmcl.2004.02.078

$$$$
96314
Actelion Java MolfileCreator 1.0

 35 38  0  0  0  0  0  0  0  0999 V2000
    0.0000   -0.0000   -0.0000 Cl  0  0  0  0  0  0  0  0  0  0  0  0
   -1.3195    0.7727   -0.0000 C   0  0  0  0  0  0  0  0  0  0  0  0
   -2.6390    0.0357   -0.0000 C   0  0  0  0  0  0  0  0  0  0  0  0
   -1.3314    2.2943   -0.0000 C   0  0  0  0  0  0  0  0  0  0  0  0
   -3.9467    0.7965   -0.0000 C   0  0  0  0  0  0  0  0  0  0  0  0
   -2.6390    3.0551   -0.0000 C   0  0  0  0  0  0  0  0  0  0  0  0
   -3.9585    2.3181   -0.0000 C   0  0  0  0  0  0  0  0  0  0  0  0
   -5.2662    3.0789   -0.0000 C   0  0  0  0  0  0  0  0  0  0  0  0
   -5.2781    4.5886   -0.0000 O   0  0  0  0  0  0  0  0  0  0  0  0
   -6.5738    2.3418   -0.0000 N   0  0  0  0  0  0  0  0  0  0  0  0
   -7.8814    3.1026   -0.0000 C   0  0  0  0  0  0  0  0  0  0  0  0
   -6.5857    0.8559   -0.0000 C   0  0  0  0  0  0  0  0  0  0  0  0
   -9.2009    2.3656   -0.0000 C   0  0  0  0  0  0  0  0  0  0  0  0
   -7.8933    4.6124   -0.0000 C   0  0  0  0  0  0  0  0  0  0  0  0
   -5.3018    0.1189   -0.0000 C   0  0  0  0  0  0  0  0  0  0  0  0
   -7.8933    0.1189   -0.0000 C   0  0  0  0  0  0  0  0  0  0  0  0
  -10.5086    3.1264   -0.0000 C   0  0  0  0  0  0  0  0  0  0  0  0
   -9.2009    5.3732   -0.0000 C   0  0  0  0  0  0  0  0  0  0  0  0
   -5.3137   -1.3790   -0.0000 C   0  0  0  0  0  0  0  0  0  0  0  0
   -7.9052   -1.3790   -0.0000 C   0  0  0  0  0  0  0  0  0  0  0  0
  -10.5205    4.6361   -0.0000 C   0  0  0  0  0  0  0  0  0  0  0  0
   -6.6214   -2.1160   -0.0000 N   0  0  0  0  0  0  0  0  0  0  0  0
   -6.6332   -3.6019   -0.0000 C   0  0  0  0  0  0  0  0  0  0  0  0
   -5.3494   -4.3389   -0.0000 C   0  0  0  0  0  0  0  0  0  0  0  0
   -4.0655   -3.5781   -0.0000 O   0  0  0  0  0  0  0  0  0  0  0  0
   -5.3613   -5.8249   -0.0000 C   0  0  0  0  0  0  0  0  0  0  0  0
   -4.0774   -6.5619   -0.0000 O   0  0  0  0  0  0  0  0  0  0  0  0
   -4.0893   -8.0479   -0.0000 C   0  0  0  0  0  0  0  0  0  0  0  0
   -5.3969   -8.7849   -0.0000 C   0  0  0  0  0  0  0  0  0  0  0  0
   -2.8055   -8.7849   -0.0000 C   0  0  0  0  0  0  0  0  0  0  0  0
   -5.4088  -10.2827   -0.0000 C   0  0  0  0  0  0  0  0  0  0  0  0
   -2.8173  -10.2827   -0.0000 C   0  0  0  0  0  0  0  0  0  0  0  0
   -4.1250  -11.0197   -0.0000 C   0  0  0  0  0  0  0  0  0  0  0  0
   -4.1250  -12.5057   -0.0000 O   0  0  0  0  0  0  0  0  0  0  0  0
   -2.8411  -13.2308   -0.0000 C   0  0  0  0  0  0  0  0  0  0  0  0
  1  2  1  0  0  0  0
  2  3  2  0  0  0  0
  2  4  1  0  0  0  0
  3  5  1  0  0  0  0
  4  6  2  0  0  0  0
  5  7  2  0  0  0  0
  7  8  1  0  0  0  0
  8  9  2  0  0  0  0
  8 10  1  0  0  0  0
 10 11  1  0  0  0  0
 10 12  1  0  0  0  0
 11 13  2  0  0  0  0
 11 14  1  0  0  0  0
 12 15  1  0  0  0  0
 12 16  1  0  0  0  0
 13 17  1  0  0  0  0
 14 18  2  0  0  0  0
 15 19  1  0  0  0  0
 16 20  1  0  0  0  0
 17 21  2  0  0  0  0
 19 22  1  0  0  0  0
 22 23  1  0  0  0  0
 23 24  1  0  0  0  0
 24 25  1  0  0  0  0
 24 26  1  0  0  0  0
 26 27  1  0  0  0  0
 27 28  1  0  0  0  0
 28 29  2  0  0  0  0
 28 30  1  0  0  0  0
 29 31  1  0  0  0  0
 30 32  2  0  0  0  0
 31 33  2  0  0  0  0
 33 34  1  0  0  0  0
 34 35  1  0  0  0  0
  6  7  1  0  0  0  0
 18 21  1  0  0  0  0
 20 22  1  0  0  0  0
 32 33  1  0  0  0  0
M  END
>  <MolRegNo>
96314

>  <m>
=

>  <Value>
1000

>  <Unit>
nM

>  <Type>
Ki

>  <pValue>
6

>  <Ligand Efficiency>
0

>  <Binding Efficiency>
0

>  <Surface Efficiency>
0

>  <Assay Index>
51650

>  <Assay Category>


>  <Assay Organism>


>  <Target ID>
11365

>  <Target Name>
Cytochrome P450 2D6

>  <Target Organism>
Homo sapiens

>  <Target Description>
Target is a single protein chain

>  <Sequence Accession>
P10635

>  <Reference>
Bioorg Med Chem Lett 14 (9), 2025-2030 (2004)

>  <Pubmed ID>
15080972

>  <DOI>
10.1016/j.bmcl.2004.02.078

$$$$
97977
Actelion Java MolfileCreator 1.0

 39 42  0  0  0  0  0  0  0  0999 V2000
    0.0000   -0.0000   -0.0000 F   0  0  0  0  0  0  0  0  0  0  0  0
    1.2995   -0.7392   -0.0000 C   0  0  0  0  0  0  0  0  0  0  0  0
    2.5991    0.0238   -0.0000 C   0  0  0  0  0  0  0  0  0  0  0  0
    1.2876   -2.2414   -0.0000 C   0  0  0  0  0  0  0  0  0  0  0  0
    3.8867   -0.7153   -0.0000 C   0  0  0  0  0  0  0  0  0  0  0  0
    2.5752   -2.9806   -0.0000 C   0  0  0  0  0  0  0  0  0  0  0  0
    3.8748   -2.2176   -0.0000 C   0  0  0  0  0  0  0  0  0  0  0  0
    5.1624   -2.9567   -0.0000 C   0  0  0  0  0  0  0  0  0  0  0  0
    5.1505   -4.4470   -0.0000 N   0  0  0  0  0  0  0  0  0  0  0  0
    6.4500   -2.1937   -0.0000 C   0  0  0  0  0  0  0  0  0  0  0  0
    3.8390   -5.1862   -0.0000 C   0  0  0  0  0  0  0  0  0  0  0  0
    6.4381   -5.1862   -0.0000 C   0  0  0  0  0  0  0  0  0  0  0  0
    6.4381   -0.6677   -0.0000 O   0  0  0  0  0  0  0  0  0  0  0  0
    7.7376   -2.9329   -0.0000 N   0  0  0  0  0  0  0  0  0  0  0  0
    3.8271   -6.6765   -0.0000 C   0  0  0  0  0  0  0  0  0  0  0  0
    6.4262   -6.6765   -0.0000 C   0  0  0  0  0  0  0  0  0  0  0  0
    9.0252   -2.1699   -0.0000 C   0  0  0  0  0  0  0  0  0  0  0  0
    5.1147   -7.4157   -0.0000 N   0  0  0  0  0  0  0  0  0  0  0  0
    9.0133   -0.6438   -0.0000 C   0  0  0  0  0  0  0  0  0  0  0  0
    5.1028   -8.9060   -0.0000 C   0  0  0  0  0  0  0  0  0  0  0  0
    7.7019    0.1192   -0.0000 C   0  0  0  0  0  0  0  0  0  0  0  0
   10.3129    0.1192   -0.0000 C   0  0  0  0  0  0  0  0  0  0  0  0
    6.3904   -9.6452   -0.0000 C   0  0  0  0  0  0  0  0  0  0  0  0
    7.6899    1.6334   -0.0000 C   0  0  0  0  0  0  0  0  0  0  0  0
   10.3009    1.6334   -0.0000 C   0  0  0  0  0  0  0  0  0  0  0  0
    7.6780   -8.8822   -0.0000 O   0  0  0  0  0  0  0  0  0  0  0  0
    6.3785  -11.1474   -0.0000 C   0  0  0  0  0  0  0  0  0  0  0  0
    8.9775    2.3964   -0.0000 C   0  0  0  0  0  0  0  0  0  0  0  0
    7.6661  -11.8747   -0.0000 O   0  0  0  0  0  0  0  0  0  0  0  0
    8.9656    3.9105   -0.0000 O   0  0  0  0  0  0  0  0  0  0  0  0
    7.6542  -13.3769   -0.0000 C   0  0  0  0  0  0  0  0  0  0  0  0
   10.2532    4.6736   -0.0000 C   0  0  0  0  0  0  0  0  0  0  0  0
    6.3427  -14.1161   -0.0000 C   0  0  0  0  0  0  0  0  0  0  0  0
    8.9418  -14.1161   -0.0000 C   0  0  0  0  0  0  0  0  0  0  0  0
    6.3308  -15.6064   -0.0000 C   0  0  0  0  0  0  0  0  0  0  0  0
    5.0193  -13.3411   -0.0000 C   0  0  0  0  0  0  0  0  0  0  0  0
    8.9299  -15.6064   -0.0000 C   0  0  0  0  0  0  0  0  0  0  0  0
   10.2413  -13.3411   -0.0000 C   0  0  0  0  0  0  0  0  0  0  0  0
    7.6184  -16.3456   -0.0000 C   0  0  0  0  0  0  0  0  0  0  0  0
  1  2  1  0  0  0  0
  2  3  2  0  0  0  0
  2  4  1  0  0  0  0
  3  5  1  0  0  0  0
  4  6  2  0  0  0  0
  5  7  2  0  0  0  0
  7  8  1  0  0  0  0
  8  9  1  0  0  0  0
  8 10  1  0  0  0  0
  9 11  1  0  0  0  0
  9 12  1  0  0  0  0
 10 13  2  0  0  0  0
 10 14  1  0  0  0  0
 11 15  1  0  0  0  0
 12 16  1  0  0  0  0
 14 17  1  0  0  0  0
 15 18  1  0  0  0  0
 17 19  1  0  0  0  0
 18 20  1  0  0  0  0
 19 21  2  0  0  0  0
 19 22  1  0  0  0  0
 20 23  1  0  0  0  0
 21 24  1  0  0  0  0
 22 25  2  0  0  0  0
 23 26  1  0  0  0  0
 23 27  1  0  0  0  0
 24 28  2  0  0  0  0
 27 29  1  0  0  0  0
 28 30  1  0  0  0  0
 29 31  1  0  0  0  0
 30 32  1  0  0  0  0
 31 33  2  0  0  0  0
 31 34  1  0  0  0  0
 33 35  1  0  0  0  0
 33 36  1  0  0  0  0
 34 37  2  0  0  0  0
 34 38  1  0  0  0  0
 35 39  2  0  0  0  0
  6  7  1  0  0  0  0
 16 18  1  0  0  0  0
 25 28  1  0  0  0  0
 37 39  1  0  0  0  0
M  END
>  <MolRegNo>
97977

>  <m>
=

>  <Value>
3000

>  <Unit>
nM

>  <Type>
Ki

>  <pValue>
5.52

>  <Ligand Efficiency>
0

>  <Binding Efficiency>
0

>  <Surface Efficiency>
0

>  <Assay Index>
51650

>  <Assay Category>


>  <Assay Organism>


>  <Target ID>
11365

>  <Target Name>
Cytochrome P450 2D6

>  <Target Organism>
Homo sapiens

>  <Target Description>
Target is a single protein chain

>  <Sequence Accession>
P10635

>  <Reference>
Bioorg Med Chem Lett 14 (9), 2025-2030 (2004)

>  <Pubmed ID>
15080972

>  <DOI>
10.1016/j.bmcl.2004.02.078

$$$$
97465
Actelion Java MolfileCreator 1.0

 38 41  0  0  0  0  0  0  0  0999 V2000
    0.0000   -0.0000   -0.0000 O   0  0  0  0  0  0  0  0  0  0  0  0
    1.0287    0.5861   -0.0000 C   0  0  0  0  0  0  0  0  0  0  0  0
    2.3205   -0.1555   -0.0000 N   0  0  0  0  0  0  0  0  0  0  0  0
    1.0167    2.1052   -0.0000 C   0  0  0  0  0  0  0  0  0  0  0  0
    2.3085   -1.6626   -0.0000 C   0  0  0  0  0  0  0  0  0  0  0  0
   -0.2990    2.8707   -0.0000 C   0  0  0  0  0  0  0  0  0  0  0  0
    2.3085    2.8707   -0.0000 C   0  0  0  0  0  0  0  0  0  0  0  0
    0.9928   -2.4042   -0.0000 C   0  0  0  0  0  0  0  0  0  0  0  0
   -0.3110    4.3898   -0.0000 C   0  0  0  0  0  0  0  0  0  0  0  0
    2.2966    4.3898   -0.0000 C   0  0  0  0  0  0  0  0  0  0  0  0
    0.9808   -3.8994   -0.0000 N   0  0  0  0  0  0  0  0  0  0  0  0
   -0.4785   -1.9856   -0.0000 C   0  0  0  0  0  0  0  0  0  0  0  0
    0.9808    5.1553   -0.0000 C   0  0  0  0  0  0  0  0  0  0  0  0
   -0.3349   -4.6410   -0.0000 C   0  0  0  0  0  0  0  0  0  0  0  0
    2.2726   -4.6410   -0.0000 C   0  0  0  0  0  0  0  0  0  0  0  0
   -1.5669   -3.0501   -0.0000 C   0  0  0  0  0  0  0  0  0  0  0  0
   -0.8732   -0.5024   -0.0000 C   0  0  0  0  0  0  0  0  0  0  0  0
    0.9689    6.6505   -0.0000 O   0  0  0  0  0  0  0  0  0  0  0  0
   -0.3469   -6.1361   -0.0000 C   0  0  0  0  0  0  0  0  0  0  0  0
    2.2607   -6.1361   -0.0000 C   0  0  0  0  0  0  0  0  0  0  0  0
   -3.0382   -2.6554   -0.0000 C   0  0  0  0  0  0  0  0  0  0  0  0
   -2.3564   -0.0837   -0.0000 C   0  0  0  0  0  0  0  0  0  0  0  0
   -0.3588    7.4160   -0.0000 C   0  0  0  0  0  0  0  0  0  0  0  0
    0.9449   -6.8777   -0.0000 N   0  0  0  0  0  0  0  0  0  0  0  0
   -3.4568   -1.1602   -0.0000 C   0  0  0  0  0  0  0  0  0  0  0  0
    0.9330   -8.3729   -0.0000 C   0  0  0  0  0  0  0  0  0  0  0  0
    2.2248   -9.1145   -0.0000 C   0  0  0  0  0  0  0  0  0  0  0  0
    3.5166   -8.3490   -0.0000 O   0  0  0  0  0  0  0  0  0  0  0  0
    2.2128  -10.6216   -0.0000 C   0  0  0  0  0  0  0  0  0  0  0  0
    3.5046  -11.3512   -0.0000 O   0  0  0  0  0  0  0  0  0  0  0  0
    3.4927  -12.8584   -0.0000 C   0  0  0  0  0  0  0  0  0  0  0  0
    2.1769  -13.6000   -0.0000 C   0  0  0  0  0  0  0  0  0  0  0  0
    4.7845  -13.6000   -0.0000 C   0  0  0  0  0  0  0  0  0  0  0  0
    2.1650  -15.0951   -0.0000 C   0  0  0  0  0  0  0  0  0  0  0  0
    4.7725  -15.0951   -0.0000 C   0  0  0  0  0  0  0  0  0  0  0  0
    3.4568  -15.8367   -0.0000 C   0  0  0  0  0  0  0  0  0  0  0  0
    3.4448  -17.3199   -0.0000 O   0  0  0  0  0  0  0  0  0  0  0  0
    4.7367  -18.0615   -0.0000 C   0  0  0  0  0  0  0  0  0  0  0  0
  1  2  2  0  0  0  0
  2  3  1  0  0  0  0
  2  4  1  0  0  0  0
  3  5  1  0  0  0  0
  4  6  2  0  0  0  0
  4  7  1  0  0  0  0
  5  8  1  0  0  0  0
  6  9  1  0  0  0  0
  7 10  2  0  0  0  0
  8 11  1  0  0  0  0
  8 12  1  0  0  0  0
  9 13  2  0  0  0  0
 11 14  1  0  0  0  0
 11 15  1  0  0  0  0
 12 16  2  0  0  0  0
 12 17  1  0  0  0  0
 13 18  1  0  0  0  0
 14 19  1  0  0  0  0
 15 20  1  0  0  0  0
 16 21  1  0  0  0  0
 17 22  2  0  0  0  0
 18 23  1  0  0  0  0
 19 24  1  0  0  0  0
 21 25  2  0  0  0  0
 24 26  1  0  0  0  0
 26 27  1  0  0  0  0
 27 28  1  0  0  0  0
 27 29  1  0  0  0  0
 29 30  1  0  0  0  0
 30 31  1  0  0  0  0
 31 32  2  0  0  0  0
 31 33  1  0  0  0  0
 32 34  1  0  0  0  0
 33 35  2  0  0  0  0
 34 36  2  0  0  0  0
 36 37  1  0  0  0  0
 37 38  1  0  0  0  0
 10 13  1  0  0  0  0
 20 24  1  0  0  0  0
 22 25  1  0  0  0  0
 35 36  1  0  0  0  0
M  END
>  <MolRegNo>
97465

>  <m>
=

>  <Value>
8000

>  <Unit>
nM

>  <Type>
Ki

>  <pValue>
5.1

>  <Ligand Efficiency>
0

>  <Binding Efficiency>
0

>  <Surface Efficiency>
0

>  <Assay Index>
51650

>  <Assay Category>


>  <Assay Organism>


>  <Target ID>
11365

>  <Target Name>
Cytochrome P450 2D6

>  <Target Organism>
Homo sapiens

>  <Target Description>
Target is a single protein chain

>  <Sequence Accession>
P10635

>  <Reference>
Bioorg Med Chem Lett 14 (9), 2025-2030 (2004)

>  <Pubmed ID>
15080972

>  <DOI>
10.1016/j.bmcl.2004.02.078

$$$$
97377
Actelion Java MolfileCreator 1.0

 37 40  0  0  0  0  0  0  0  0999 V2000
    0.0000   -0.0000   -0.0000 Cl  0  0  0  0  0  0  0  0  0  0  0  0
   -0.0237    1.5074   -0.0000 C   0  0  0  0  0  0  0  0  0  0  0  0
   -1.3412    2.2670   -0.0000 C   0  0  0  0  0  0  0  0  0  0  0  0
    1.2581    2.2670   -0.0000 C   0  0  0  0  0  0  0  0  0  0  0  0
   -1.3531    3.7743   -0.0000 C   0  0  0  0  0  0  0  0  0  0  0  0
    1.2462    3.7743   -0.0000 C   0  0  0  0  0  0  0  0  0  0  0  0
   -0.0593    4.5339   -0.0000 C   0  0  0  0  0  0  0  0  0  0  0  0
   -0.0712    6.0532   -0.0000 O   0  0  0  0  0  0  0  0  0  0  0  0
   -1.3768    6.8009   -0.0000 C   0  0  0  0  0  0  0  0  0  0  0  0
   -1.3887    8.3202   -0.0000 C   0  0  0  0  0  0  0  0  0  0  0  0
   -0.1068    9.0798   -0.0000 O   0  0  0  0  0  0  0  0  0  0  0  0
   -2.6943    9.0798   -0.0000 C   0  0  0  0  0  0  0  0  0  0  0  0
   -2.7061   10.5871   -0.0000 N   0  0  0  0  0  0  0  0  0  0  0  0
   -1.4243   11.3467   -0.0000 C   0  0  0  0  0  0  0  0  0  0  0  0
   -4.0117   11.3467   -0.0000 C   0  0  0  0  0  0  0  0  0  0  0  0
   -1.4361   12.8541   -0.0000 C   0  0  0  0  0  0  0  0  0  0  0  0
   -4.0236   12.8541   -0.0000 C   0  0  0  0  0  0  0  0  0  0  0  0
   -2.7417   13.6137   -0.0000 N   0  0  0  0  0  0  0  0  0  0  0  0
   -2.7536   15.1211   -0.0000 C   0  0  0  0  0  0  0  0  0  0  0  0
   -4.2135   15.5365   -0.0000 C   0  0  0  0  0  0  0  0  0  0  0  0
   -1.4718   15.8807   -0.0000 C   0  0  0  0  0  0  0  0  0  0  0  0
   -4.6052   17.0082   -0.0000 C   0  0  0  0  0  0  0  0  0  0  0  0
   -5.2936   14.4802   -0.0000 C   0  0  0  0  0  0  0  0  0  0  0  0
   -1.4836   17.3999   -0.0000 N   0  0  0  0  0  0  0  0  0  0  0  0
   -6.0769   17.4237   -0.0000 C   0  0  0  0  0  0  0  0  0  0  0  0
   -6.7534   14.8718   -0.0000 C   0  0  0  0  0  0  0  0  0  0  0  0
   -2.8011   18.1595   -0.0000 C   0  0  0  0  0  0  0  0  0  0  0  0
   -7.1570   16.3673   -0.0000 C   0  0  0  0  0  0  0  0  0  0  0  0
   -3.8337   17.6017   -0.0000 O   0  0  0  0  0  0  0  0  0  0  0  0
   -2.8129   19.6669   -0.0000 C   0  0  0  0  0  0  0  0  0  0  0  0
   -4.1185   20.4265   -0.0000 C   0  0  0  0  0  0  0  0  0  0  0  0
   -1.5192   20.4265   -0.0000 C   0  0  0  0  0  0  0  0  0  0  0  0
   -5.4241   19.6906   -0.0000 O   0  0  0  0  0  0  0  0  0  0  0  0
   -4.1304   21.9339   -0.0000 C   0  0  0  0  0  0  0  0  0  0  0  0
   -1.5311   21.9339   -0.0000 C   0  0  0  0  0  0  0  0  0  0  0  0
   -5.4360   18.2070   -0.0000 C   0  0  0  0  0  0  0  0  0  0  0  0
   -2.8486   22.6935   -0.0000 C   0  0  0  0  0  0  0  0  0  0  0  0
  1  2  1  0  0  0  0
  2  3  2  0  0  0  0
  2  4  1  0  0  0  0
  3  5  1  0  0  0  0
  4  6  2  0  0  0  0
  5  7  2  0  0  0  0
  7  8  1  0  0  0  0
  8  9  1  0  0  0  0
  9 10  1  0  0  0  0
 10 11  1  0  0  0  0
 10 12  1  0  0  0  0
 12 13  1  0  0  0  0
 13 14  1  0  0  0  0
 13 15  1  0  0  0  0
 14 16  1  0  0  0  0
 15 17  1  0  0  0  0
 16 18  1  0  0  0  0
 18 19  1  0  0  0  0
 19 20  1  0  0  0  0
 19 21  1  0  0  0  0
 20 22  2  0  0  0  0
 20 23  1  0  0  0  0
 21 24  1  0  0  0  0
 22 25  1  0  0  0  0
 23 26  2  0  0  0  0
 24 27  1  0  0  0  0
 25 28  2  0  0  0  0
 27 29  2  0  0  0  0
 27 30  1  0  0  0  0
 30 31  2  0  0  0  0
 30 32  1  0  0  0  0
 31 33  1  0  0  0  0
 31 34  1  0  0  0  0
 32 35  2  0  0  0  0
 33 36  1  0  0  0  0
 34 37  2  0  0  0  0
  6  7  1  0  0  0  0
 17 18  1  0  0  0  0
 26 28  1  0  0  0  0
 35 37  1  0  0  0  0
M  END
>  <MolRegNo>
97377

>  <m>
=

>  <Value>
7000

>  <Unit>
nM

>  <Type>
Ki

>  <pValue>
5.16

>  <Ligand Efficiency>
0

>  <Binding Efficiency>
0

>  <Surface Efficiency>
0

>  <Assay Index>
51650

>  <Assay Category>


>  <Assay Organism>


>  <Target ID>
11365

>  <Target Name>
Cytochrome P450 2D6

>  <Target Organism>
Homo sapiens

>  <Target Description>
Target is a single protein chain

>  <Sequence Accession>
P10635

>  <Reference>
Bioorg Med Chem Lett 14 (9), 2025-2030 (2004)

>  <Pubmed ID>
15080972

>  <DOI>
10.1016/j.bmcl.2004.02.078

$$$$
96278
Actelion Java MolfileCreator 1.0

 37 40  0  0  0  0  0  0  0  0999 V2000
    0.0000   -0.0000   -0.0000 F   0  0  0  0  0  0  0  0  0  0  0  0
    1.3122   -0.7464   -0.0000 C   0  0  0  0  0  0  0  0  0  0  0  0
    2.6244    0.0241   -0.0000 C   0  0  0  0  0  0  0  0  0  0  0  0
    1.3002   -2.2392   -0.0000 C   0  0  0  0  0  0  0  0  0  0  0  0
    3.9126   -0.7223   -0.0000 C   0  0  0  0  0  0  0  0  0  0  0  0
    2.6003   -2.9856   -0.0000 C   0  0  0  0  0  0  0  0  0  0  0  0
    3.9005   -2.2151   -0.0000 C   0  0  0  0  0  0  0  0  0  0  0  0
    5.1887   -2.9615   -0.0000 N   0  0  0  0  0  0  0  0  0  0  0  0
    6.4768   -2.1910   -0.0000 C   0  0  0  0  0  0  0  0  0  0  0  0
    5.1766   -4.4543   -0.0000 C   0  0  0  0  0  0  0  0  0  0  0  0
    6.4648   -0.6742   -0.0000 O   0  0  0  0  0  0  0  0  0  0  0  0
    7.7770   -2.9374   -0.0000 C   0  0  0  0  0  0  0  0  0  0  0  0
    3.8644   -5.2007   -0.0000 C   0  0  0  0  0  0  0  0  0  0  0  0
    6.4768   -5.2007   -0.0000 C   0  0  0  0  0  0  0  0  0  0  0  0
    7.7649   -4.4423   -0.0000 C   0  0  0  0  0  0  0  0  0  0  0  0
    9.0771   -2.1670   -0.0000 C   0  0  0  0  0  0  0  0  0  0  0  0
    3.8524   -6.7055   -0.0000 C   0  0  0  0  0  0  0  0  0  0  0  0
    6.4648   -6.7055   -0.0000 C   0  0  0  0  0  0  0  0  0  0  0  0
    9.0531   -5.1887   -0.0000 C   0  0  0  0  0  0  0  0  0  0  0  0
   10.3653   -2.9134   -0.0000 C   0  0  0  0  0  0  0  0  0  0  0  0
    5.1405   -7.4519   -0.0000 N   0  0  0  0  0  0  0  0  0  0  0  0
   10.3532   -4.4182   -0.0000 C   0  0  0  0  0  0  0  0  0  0  0  0
    5.1285   -8.9447   -0.0000 C   0  0  0  0  0  0  0  0  0  0  0  0
   11.6655   -5.1646   -0.0000 O   0  0  0  0  0  0  0  0  0  0  0  0
    6.4166   -9.6670   -0.0000 C   0  0  0  0  0  0  0  0  0  0  0  0
   11.6655   -6.6694   -0.0000 C   0  0  0  0  0  0  0  0  0  0  0  0
    7.7047   -8.9206   -0.0000 O   0  0  0  0  0  0  0  0  0  0  0  0
    6.4046  -11.1839   -0.0000 C   0  0  0  0  0  0  0  0  0  0  0  0
    7.6927  -11.9303   -0.0000 O   0  0  0  0  0  0  0  0  0  0  0  0
    7.6807  -13.4231   -0.0000 C   0  0  0  0  0  0  0  0  0  0  0  0
    6.3684  -14.1695   -0.0000 C   0  0  0  0  0  0  0  0  0  0  0  0
    8.9688  -14.1695   -0.0000 C   0  0  0  0  0  0  0  0  0  0  0  0
    6.3564  -15.6743   -0.0000 C   0  0  0  0  0  0  0  0  0  0  0  0
    8.9568  -15.6743   -0.0000 C   0  0  0  0  0  0  0  0  0  0  0  0
    7.6445  -16.4207   -0.0000 C   0  0  0  0  0  0  0  0  0  0  0  0
    7.6566  -17.9135   -0.0000 O   0  0  0  0  0  0  0  0  0  0  0  0
    8.9447  -18.6358   -0.0000 C   0  0  0  0  0  0  0  0  0  0  0  0
  1  2  1  0  0  0  0
  2  3  2  0  0  0  0
  2  4  1  0  0  0  0
  3  5  1  0  0  0  0
  4  6  2  0  0  0  0
  5  7  2  0  0  0  0
  7  8  1  0  0  0  0
  8  9  1  0  0  0  0
  8 10  1  0  0  0  0
  9 11  2  0  0  0  0
  9 12  1  0  0  0  0
 10 13  1  0  0  0  0
 10 14  1  0  0  0  0
 12 15  2  0  0  0  0
 12 16  1  0  0  0  0
 13 17  1  0  0  0  0
 14 18  1  0  0  0  0
 15 19  1  0  0  0  0
 16 20  2  0  0  0  0
 17 21  1  0  0  0  0
 19 22  2  0  0  0  0
 21 23  1  0  0  0  0
 22 24  1  0  0  0  0
 23 25  1  0  0  0  0
 24 26  1  0  0  0  0
 25 27  1  0  0  0  0
 25 28  1  0  0  0  0
 28 29  1  0  0  0  0
 29 30  1  0  0  0  0
 30 31  2  0  0  0  0
 30 32  1  0  0  0  0
 31 33  1  0  0  0  0
 32 34  2  0  0  0  0
 33 35  2  0  0  0  0
 35 36  1  0  0  0  0
 36 37  1  0  0  0  0
  6  7  1  0  0  0  0
 18 21  1  0  0  0  0
 20 22  1  0  0  0  0
 34 35  1  0  0  0  0
M  END
>  <MolRegNo>
96278

>  <m>
=

>  <Value>
3000

>  <Unit>
nM

>  <Type>
Ki

>  <pValue>
5.52

>  <Ligand Efficiency>
0

>  <Binding Efficiency>
0

>  <Surface Efficiency>
0

>  <Assay Index>
51650

>  <Assay Category>


>  <Assay Organism>


>  <Target ID>
11365

>  <Target Name>
Cytochrome P450 2D6

>  <Target Organism>
Homo sapiens

>  <Target Description>
Target is a single protein chain

>  <Sequence Accession>
P10635

>  <Reference>
Bioorg Med Chem Lett 14 (9), 2025-2030 (2004)

>  <Pubmed ID>
15080972

>  <DOI>
10.1016/j.bmcl.2004.02.078

$$$$
97850
Actelion Java MolfileCreator 1.0

 40 43  0  0  0  0  0  0  0  0999 V2000
    0.0000   -0.0000   -0.0000 F   0  0  0  0  0  0  0  0  0  0  0  0
    1.3007   -0.7518   -0.0000 C   0  0  0  0  0  0  0  0  0  0  0  0
    2.0406    0.5728   -0.0000 F   0  0  0  0  0  0  0  0  0  0  0  0
    0.5251   -2.0525   -0.0000 F   0  0  0  0  0  0  0  0  0  0  0  0
    2.6014   -1.5036   -0.0000 C   0  0  0  0  0  0  0  0  0  0  0  0
    2.5895   -2.9952   -0.0000 C   0  0  0  0  0  0  0  0  0  0  0  0
    3.9022   -0.7399   -0.0000 C   0  0  0  0  0  0  0  0  0  0  0  0
    3.8783   -3.7351   -0.0000 C   0  0  0  0  0  0  0  0  0  0  0  0
    5.1909   -1.4797   -0.0000 C   0  0  0  0  0  0  0  0  0  0  0  0
    5.1790   -2.9714   -0.0000 C   0  0  0  0  0  0  0  0  0  0  0  0
    6.4678   -3.7112   -0.0000 C   0  0  0  0  0  0  0  0  0  0  0  0
    6.4559   -5.2029   -0.0000 N   0  0  0  0  0  0  0  0  0  0  0  0
    7.7566   -2.9475   -0.0000 C   0  0  0  0  0  0  0  0  0  0  0  0
    7.7446   -5.9427   -0.0000 C   0  0  0  0  0  0  0  0  0  0  0  0
    5.1432   -5.9427   -0.0000 C   0  0  0  0  0  0  0  0  0  0  0  0
    7.7446   -1.4320   -0.0000 O   0  0  0  0  0  0  0  0  0  0  0  0
    9.0454   -3.6874   -0.0000 N   0  0  0  0  0  0  0  0  0  0  0  0
    7.7327   -7.4463   -0.0000 C   0  0  0  0  0  0  0  0  0  0  0  0
    5.1313   -7.4463   -0.0000 C   0  0  0  0  0  0  0  0  0  0  0  0
   10.3341   -2.9236   -0.0000 C   0  0  0  0  0  0  0  0  0  0  0  0
    6.4201   -8.1862   -0.0000 N   0  0  0  0  0  0  0  0  0  0  0  0
   10.3222   -1.4081   -0.0000 C   0  0  0  0  0  0  0  0  0  0  0  0
    6.4081   -9.6778   -0.0000 C   0  0  0  0  0  0  0  0  0  0  0  0
    9.0096   -0.6444   -0.0000 C   0  0  0  0  0  0  0  0  0  0  0  0
   11.6229   -0.6444   -0.0000 C   0  0  0  0  0  0  0  0  0  0  0  0
    7.6969  -10.4177   -0.0000 C   0  0  0  0  0  0  0  0  0  0  0  0
    8.9976    0.8711   -0.0000 C   0  0  0  0  0  0  0  0  0  0  0  0
   11.6110    0.8711   -0.0000 C   0  0  0  0  0  0  0  0  0  0  0  0
    8.9857   -9.6540   -0.0000 O   0  0  0  0  0  0  0  0  0  0  0  0
    7.6850  -11.9093   -0.0000 C   0  0  0  0  0  0  0  0  0  0  0  0
   10.2864    1.6468   -0.0000 C   0  0  0  0  0  0  0  0  0  0  0  0
    8.9738  -12.6492   -0.0000 O   0  0  0  0  0  0  0  0  0  0  0  0
    8.9618  -14.1408   -0.0000 C   0  0  0  0  0  0  0  0  0  0  0  0
    7.6492  -14.8807   -0.0000 C   0  0  0  0  0  0  0  0  0  0  0  0
   10.2506  -14.8807   -0.0000 C   0  0  0  0  0  0  0  0  0  0  0  0
    7.6372  -16.3843   -0.0000 C   0  0  0  0  0  0  0  0  0  0  0  0
   10.2387  -16.3843   -0.0000 C   0  0  0  0  0  0  0  0  0  0  0  0
    8.9260  -17.1241   -0.0000 C   0  0  0  0  0  0  0  0  0  0  0  0
    8.9260  -18.6158   -0.0000 O   0  0  0  0  0  0  0  0  0  0  0  0
   10.2148  -19.3437   -0.0000 C   0  0  0  0  0  0  0  0  0  0  0  0
  1  2  1  0  0  0  0
  2  3  1  0  0  0  0
  2  4  1  0  0  0  0
  2  5  1  0  0  0  0
  5  6  2  0  0  0  0
  5  7  1  0  0  0  0
  6  8  1  0  0  0  0
  7  9  2  0  0  0  0
  8 10  2  0  0  0  0
 10 11  1  0  0  0  0
 11 12  1  0  0  0  0
 11 13  1  0  0  0  0
 12 14  1  0  0  0  0
 12 15  1  0  0  0  0
 13 16  2  0  0  0  0
 13 17  1  0  0  0  0
 14 18  1  0  0  0  0
 15 19  1  0  0  0  0
 17 20  1  0  0  0  0
 18 21  1  0  0  0  0
 20 22  1  0  0  0  0
 21 23  1  0  0  0  0
 22 24  2  0  0  0  0
 22 25  1  0  0  0  0
 23 26  1  0  0  0  0
 24 27  1  0  0  0  0
 25 28  2  0  0  0  0
 26 29  1  0  0  0  0
 26 30  1  0  0  0  0
 27 31  2  0  0  0  0
 30 32  1  0  0  0  0
 32 33  1  0  0  0  0
 33 34  2  0  0  0  0
 33 35  1  0  0  0  0
 34 36  1  0  0  0  0
 35 37  2  0  0  0  0
 36 38  2  0  0  0  0
 38 39  1  0  0  0  0
 39 40  1  0  0  0  0
  9 10  1  0  0  0  0
 19 21  1  0  0  0  0
 28 31  1  0  0  0  0
 37 38  1  0  0  0  0
M  END
>  <MolRegNo>
97850

>  <m>
=

>  <Value>
2000

>  <Unit>
nM

>  <Type>
Ki

>  <pValue>
5.7

>  <Ligand Efficiency>
0

>  <Binding Efficiency>
0

>  <Surface Efficiency>
0

>  <Assay Index>
51650

>  <Assay Category>


>  <Assay Organism>


>  <Target ID>
11365

>  <Target Name>
Cytochrome P450 2D6

>  <Target Organism>
Homo sapiens

>  <Target Description>
Target is a single protein chain

>  <Sequence Accession>
P10635

>  <Reference>
Bioorg Med Chem Lett 14 (9), 2025-2030 (2004)

>  <Pubmed ID>
15080972

>  <DOI>
10.1016/j.bmcl.2004.02.078

$$$$
96246
Actelion Java MolfileCreator 1.0

 34 37  0  0  0  0  0  0  0  0999 V2000
    0.0000   -0.0000   -0.0000 O   0  0  0  0  0  0  0  0  0  0  0  0
   -0.0119   -1.4917   -0.0000 C   0  0  0  0  0  0  0  0  0  0  0  0
   -1.3247   -2.2316   -0.0000 N   0  0  0  0  0  0  0  0  0  0  0  0
    1.2769   -2.2316   -0.0000 C   0  0  0  0  0  0  0  0  0  0  0  0
   -2.6374   -1.4679   -0.0000 C   0  0  0  0  0  0  0  0  0  0  0  0
   -1.3366   -3.7234   -0.0000 C   0  0  0  0  0  0  0  0  0  0  0  0
    1.2650   -3.7353   -0.0000 C   0  0  0  0  0  0  0  0  0  0  0  0
    2.5777   -1.4679   -0.0000 C   0  0  0  0  0  0  0  0  0  0  0  0
   -3.9620   -2.2078   -0.0000 C   0  0  0  0  0  0  0  0  0  0  0  0
   -2.6493    0.0477   -0.0000 C   0  0  0  0  0  0  0  0  0  0  0  0
   -2.6493   -4.4633   -0.0000 C   0  0  0  0  0  0  0  0  0  0  0  0
   -0.0477   -4.4633   -0.0000 C   0  0  0  0  0  0  0  0  0  0  0  0
    2.5538   -4.4752   -0.0000 C   0  0  0  0  0  0  0  0  0  0  0  0
    3.8666   -2.2078   -0.0000 C   0  0  0  0  0  0  0  0  0  0  0  0
   -5.2748   -1.4440   -0.0000 C   0  0  0  0  0  0  0  0  0  0  0  0
   -3.9620    0.8115   -0.0000 C   0  0  0  0  0  0  0  0  0  0  0  0
   -2.6613   -5.9669   -0.0000 C   0  0  0  0  0  0  0  0  0  0  0  0
   -0.0597   -5.9669   -0.0000 C   0  0  0  0  0  0  0  0  0  0  0  0
    3.8546   -3.7114   -0.0000 C   0  0  0  0  0  0  0  0  0  0  0  0
   -5.2867    0.0716   -0.0000 C   0  0  0  0  0  0  0  0  0  0  0  0
   -1.3724   -6.7068   -0.0000 N   0  0  0  0  0  0  0  0  0  0  0  0
   -1.3843   -8.1986   -0.0000 C   0  0  0  0  0  0  0  0  0  0  0  0
   -0.0955   -8.9385   -0.0000 C   0  0  0  0  0  0  0  0  0  0  0  0
    1.1934   -8.1747   -0.0000 O   0  0  0  0  0  0  0  0  0  0  0  0
   -0.1074  -10.4302   -0.0000 C   0  0  0  0  0  0  0  0  0  0  0  0
    1.1815  -11.1701   -0.0000 O   0  0  0  0  0  0  0  0  0  0  0  0
    1.1695  -12.6618   -0.0000 C   0  0  0  0  0  0  0  0  0  0  0  0
    2.4584  -13.4017   -0.0000 C   0  0  0  0  0  0  0  0  0  0  0  0
   -0.1432  -13.4017   -0.0000 C   0  0  0  0  0  0  0  0  0  0  0  0
    2.4464  -14.9054   -0.0000 C   0  0  0  0  0  0  0  0  0  0  0  0
   -0.1551  -14.9054   -0.0000 C   0  0  0  0  0  0  0  0  0  0  0  0
    1.1337  -15.6453   -0.0000 C   0  0  0  0  0  0  0  0  0  0  0  0
    1.1337  -17.1370   -0.0000 O   0  0  0  0  0  0  0  0  0  0  0  0
    2.4226  -17.8650   -0.0000 C   0  0  0  0  0  0  0  0  0  0  0  0
  1  2  2  0  0  0  0
  2  3  1  0  0  0  0
  2  4  1  0  0  0  0
  3  5  1  0  0  0  0
  3  6  1  0  0  0  0
  4  7  2  0  0  0  0
  4  8  1  0  0  0  0
  5  9  2  0  0  0  0
  5 10  1  0  0  0  0
  6 11  1  0  0  0  0
  6 12  1  0  0  0  0
  7 13  1  0  0  0  0
  8 14  2  0  0  0  0
  9 15  1  0  0  0  0
 10 16  2  0  0  0  0
 11 17  1  0  0  0  0
 12 18  1  0  0  0  0
 13 19  2  0  0  0  0
 15 20  2  0  0  0  0
 17 21  1  0  0  0  0
 21 22  1  0  0  0  0
 22 23  1  0  0  0  0
 23 24  1  0  0  0  0
 23 25  1  0  0  0  0
 25 26  1  0  0  0  0
 26 27  1  0  0  0  0
 27 28  2  0  0  0  0
 27 29  1  0  0  0  0
 28 30  1  0  0  0  0
 29 31  2  0  0  0  0
 30 32  2  0  0  0  0
 32 33  1  0  0  0  0
 33 34  1  0  0  0  0
 14 19  1  0  0  0  0
 16 20  1  0  0  0  0
 18 21  1  0  0  0  0
 31 32  1  0  0  0  0
M  END
>  <MolRegNo>
96246

>  <m>
=

>  <Value>
2000

>  <Unit>
nM

>  <Type>
Ki

>  <pValue>
5.7

>  <Ligand Efficiency>
0

>  <Binding Efficiency>
0

>  <Surface Efficiency>
0

>  <Assay Index>
51650

>  <Assay Category>


>  <Assay Organism>


>  <Target ID>
11365

>  <Target Name>
Cytochrome P450 2D6

>  <Target Organism>
Homo sapiens

>  <Target Description>
Target is a single protein chain

>  <Sequence Accession>
P10635

>  <Reference>
Bioorg Med Chem Lett 14 (9), 2025-2030 (2004)

>  <Pubmed ID>
15080972

>  <DOI>
10.1016/j.bmcl.2004.02.078

$$$$
96973
Actelion Java MolfileCreator 1.0

 40 43  0  0  0  0  0  0  0  0999 V2000
    0.0000   -0.0000   -0.0000 O   0  0  0  0  0  0  0  0  0  0  0  0
   -0.0119   -1.4978   -0.0000 C   0  0  0  0  0  0  0  0  0  0  0  0
    1.2719   -2.2348   -0.0000 N   0  0  0  0  0  0  0  0  0  0  0  0
   -1.3195   -2.2348   -0.0000 C   0  0  0  0  0  0  0  0  0  0  0  0
    2.5558   -1.4740   -0.0000 C   0  0  0  0  0  0  0  0  0  0  0  0
   -1.3314   -3.7207   -0.0000 N   0  0  0  0  0  0  0  0  0  0  0  0
   -2.6271   -1.4740   -0.0000 C   0  0  0  0  0  0  0  0  0  0  0  0
    2.5439    0.0475   -0.0000 C   0  0  0  0  0  0  0  0  0  0  0  0
   -2.6390   -4.4577   -0.0000 C   0  0  0  0  0  0  0  0  0  0  0  0
   -0.0475   -4.4577   -0.0000 C   0  0  0  0  0  0  0  0  0  0  0  0
   -2.6390    0.0475   -0.0000 C   0  0  0  0  0  0  0  0  0  0  0  0
   -3.9466   -2.2110   -0.0000 C   0  0  0  0  0  0  0  0  0  0  0  0
    3.8396    0.8083   -0.0000 C   0  0  0  0  0  0  0  0  0  0  0  0
    1.2363    0.8083   -0.0000 C   0  0  0  0  0  0  0  0  0  0  0  0
   -2.6509   -5.9437   -0.0000 C   0  0  0  0  0  0  0  0  0  0  0  0
   -0.0594   -5.9437   -0.0000 C   0  0  0  0  0  0  0  0  0  0  0  0
   -3.9466    0.8083   -0.0000 C   0  0  0  0  0  0  0  0  0  0  0  0
   -5.2542   -1.4503   -0.0000 C   0  0  0  0  0  0  0  0  0  0  0  0
    3.8277    2.3180   -0.0000 C   0  0  0  0  0  0  0  0  0  0  0  0
    1.2244    2.3180   -0.0000 C   0  0  0  0  0  0  0  0  0  0  0  0
   -1.3670   -6.6807   -0.0000 N   0  0  0  0  0  0  0  0  0  0  0  0
   -5.2661    0.0713   -0.0000 C   0  0  0  0  0  0  0  0  0  0  0  0
    2.5082    3.0788   -0.0000 C   0  0  0  0  0  0  0  0  0  0  0  0
   -1.3789   -8.1666   -0.0000 C   0  0  0  0  0  0  0  0  0  0  0  0
   -6.5856    0.8321   -0.0000 O   0  0  0  0  0  0  0  0  0  0  0  0
    2.4963    4.5885   -0.0000 O   0  0  0  0  0  0  0  0  0  0  0  0
   -0.0951   -8.9036   -0.0000 C   0  0  0  0  0  0  0  0  0  0  0  0
   -7.9051    0.0951   -0.0000 C   0  0  0  0  0  0  0  0  0  0  0  0
    3.7802    5.3374   -0.0000 C   0  0  0  0  0  0  0  0  0  0  0  0
    1.1887   -8.1428   -0.0000 O   0  0  0  0  0  0  0  0  0  0  0  0
   -0.1070  -10.4014   -0.0000 C   0  0  0  0  0  0  0  0  0  0  0  0
    1.1768  -11.1265   -0.0000 O   0  0  0  0  0  0  0  0  0  0  0  0
    1.1650  -12.6243   -0.0000 C   0  0  0  0  0  0  0  0  0  0  0  0
   -0.1426  -13.3613   -0.0000 C   0  0  0  0  0  0  0  0  0  0  0  0
    2.4488  -13.3613   -0.0000 C   0  0  0  0  0  0  0  0  0  0  0  0
   -0.1545  -14.8472   -0.0000 C   0  0  0  0  0  0  0  0  0  0  0  0
   -1.4621  -12.5887   -0.0000 C   0  0  0  0  0  0  0  0  0  0  0  0
    2.4369  -14.8472   -0.0000 C   0  0  0  0  0  0  0  0  0  0  0  0
    3.7445  -12.5887   -0.0000 C   0  0  0  0  0  0  0  0  0  0  0  0
    1.1293  -15.5843   -0.0000 C   0  0  0  0  0  0  0  0  0  0  0  0
  1  2  2  0  0  0  0
  2  3  1  0  0  0  0
  2  4  1  0  0  0  0
  3  5  1  0  0  0  0
  4  6  1  0  0  0  0
  4  7  1  0  0  0  0
  5  8  1  0  0  0  0
  6  9  1  0  0  0  0
  6 10  1  0  0  0  0
  7 11  2  0  0  0  0
  7 12  1  0  0  0  0
  8 13  2  0  0  0  0
  8 14  1  0  0  0  0
  9 15  1  0  0  0  0
 10 16  1  0  0  0  0
 11 17  1  0  0  0  0
 12 18  2  0  0  0  0
 13 19  1  0  0  0  0
 14 20  2  0  0  0  0
 15 21  1  0  0  0  0
 17 22  2  0  0  0  0
 19 23  2  0  0  0  0
 21 24  1  0  0  0  0
 22 25  1  0  0  0  0
 23 26  1  0  0  0  0
 24 27  1  0  0  0  0
 25 28  1  0  0  0  0
 26 29  1  0  0  0  0
 27 30  1  0  0  0  0
 27 31  1  0  0  0  0
 31 32  1  0  0  0  0
 32 33  1  0  0  0  0
 33 34  2  0  0  0  0
 33 35  1  0  0  0  0
 34 36  1  0  0  0  0
 34 37  1  0  0  0  0
 35 38  2  0  0  0  0
 35 39  1  0  0  0  0
 36 40  2  0  0  0  0
 16 21  1  0  0  0  0
 18 22  1  0  0  0  0
 20 23  1  0  0  0  0
 38 40  1  0  0  0  0
M  END
>  <MolRegNo>
96973

>  <m>
=

>  <Value>
5000

>  <Unit>
nM

>  <Type>
Ki

>  <pValue>
5.3

>  <Ligand Efficiency>
0

>  <Binding Efficiency>
0

>  <Surface Efficiency>
0

>  <Assay Index>
51650

>  <Assay Category>


>  <Assay Organism>


>  <Target ID>
11365

>  <Target Name>
Cytochrome P450 2D6

>  <Target Organism>
Homo sapiens

>  <Target Description>
Target is a single protein chain

>  <Sequence Accession>
P10635

>  <Reference>
Bioorg Med Chem Lett 14 (9), 2025-2030 (2004)

>  <Pubmed ID>
15080972

>  <DOI>
10.1016/j.bmcl.2004.02.078

$$$$
96892
Actelion Java MolfileCreator 1.0

 38 41  0  0  0  0  0  0  0  0999 V2000
    0.0000   -0.0000   -0.0000 O   0  0  0  0  0  0  0  0  0  0  0  0
    1.0362    0.5783   -0.0000 C   0  0  0  0  0  0  0  0  0  0  0  0
    2.3254   -0.1687   -0.0000 N   0  0  0  0  0  0  0  0  0  0  0  0
    1.0241    2.1085   -0.0000 C   0  0  0  0  0  0  0  0  0  0  0  0
    2.3134   -1.6748   -0.0000 C   0  0  0  0  0  0  0  0  0  0  0  0
   -0.2892    2.8796   -0.0000 C   0  0  0  0  0  0  0  0  0  0  0  0
    2.3134    2.8796   -0.0000 C   0  0  0  0  0  0  0  0  0  0  0  0
    1.0000   -2.4218   -0.0000 C   0  0  0  0  0  0  0  0  0  0  0  0
   -1.6145    2.1326   -0.0000 O   0  0  0  0  0  0  0  0  0  0  0  0
   -0.3012    4.3978   -0.0000 C   0  0  0  0  0  0  0  0  0  0  0  0
    2.3013    4.3978   -0.0000 C   0  0  0  0  0  0  0  0  0  0  0  0
    0.9880   -3.9158   -0.0000 N   0  0  0  0  0  0  0  0  0  0  0  0
   -0.4699   -2.0121   -0.0000 C   0  0  0  0  0  0  0  0  0  0  0  0
   -1.6266    0.6386   -0.0000 C   0  0  0  0  0  0  0  0  0  0  0  0
    0.9880    5.1689   -0.0000 C   0  0  0  0  0  0  0  0  0  0  0  0
    2.2893   -4.6629   -0.0000 C   0  0  0  0  0  0  0  0  0  0  0  0
   -0.3253   -4.6629   -0.0000 C   0  0  0  0  0  0  0  0  0  0  0  0
   -1.5543   -3.0604   -0.0000 C   0  0  0  0  0  0  0  0  0  0  0  0
   -0.8675   -0.5181   -0.0000 C   0  0  0  0  0  0  0  0  0  0  0  0
    2.2772   -6.1569   -0.0000 C   0  0  0  0  0  0  0  0  0  0  0  0
   -0.3374   -6.1569   -0.0000 C   0  0  0  0  0  0  0  0  0  0  0  0
   -3.0242   -2.6628   -0.0000 C   0  0  0  0  0  0  0  0  0  0  0  0
   -2.3375   -0.1084   -0.0000 C   0  0  0  0  0  0  0  0  0  0  0  0
    0.9518   -6.9039   -0.0000 N   0  0  0  0  0  0  0  0  0  0  0  0
   -3.4339   -1.1808   -0.0000 C   0  0  0  0  0  0  0  0  0  0  0  0
    0.9398   -8.3980   -0.0000 C   0  0  0  0  0  0  0  0  0  0  0  0
    2.2290   -9.1450   -0.0000 C   0  0  0  0  0  0  0  0  0  0  0  0
    3.5182   -8.3739   -0.0000 O   0  0  0  0  0  0  0  0  0  0  0  0
    2.2170  -10.6631   -0.0000 C   0  0  0  0  0  0  0  0  0  0  0  0
    3.5062  -11.3981   -0.0000 O   0  0  0  0  0  0  0  0  0  0  0  0
    3.4941  -12.9042   -0.0000 C   0  0  0  0  0  0  0  0  0  0  0  0
    2.1808  -13.6512   -0.0000 C   0  0  0  0  0  0  0  0  0  0  0  0
    4.7833  -13.6512   -0.0000 C   0  0  0  0  0  0  0  0  0  0  0  0
    2.1688  -15.1452   -0.0000 C   0  0  0  0  0  0  0  0  0  0  0  0
    4.7713  -15.1452   -0.0000 C   0  0  0  0  0  0  0  0  0  0  0  0
    3.4580  -15.8923   -0.0000 C   0  0  0  0  0  0  0  0  0  0  0  0
    3.4580  -17.3863   -0.0000 O   0  0  0  0  0  0  0  0  0  0  0  0
    4.7472  -18.1333   -0.0000 C   0  0  0  0  0  0  0  0  0  0  0  0
  1  2  2  0  0  0  0
  2  3  1  0  0  0  0
  2  4  1  0  0  0  0
  3  5  1  0  0  0  0
  4  6  2  0  0  0  0
  4  7  1  0  0  0  0
  5  8  1  0  0  0  0
  6  9  1  0  0  0  0
  6 10  1  0  0  0  0
  7 11  2  0  0  0  0
  8 12  1  0  0  0  0
  8 13  1  0  0  0  0
  9 14  1  0  0  0  0
 10 15  2  0  0  0  0
 12 16  1  0  0  0  0
 12 17  1  0  0  0  0
 13 18  2  0  0  0  0
 13 19  1  0  0  0  0
 16 20  1  0  0  0  0
 17 21  1  0  0  0  0
 18 22  1  0  0  0  0
 19 23  2  0  0  0  0
 20 24  1  0  0  0  0
 22 25  2  0  0  0  0
 24 26  1  0  0  0  0
 26 27  1  0  0  0  0
 27 28  1  0  0  0  0
 27 29  1  0  0  0  0
 29 30  1  0  0  0  0
 30 31  1  0  0  0  0
 31 32  2  0  0  0  0
 31 33  1  0  0  0  0
 32 34  1  0  0  0  0
 33 35  2  0  0  0  0
 34 36  2  0  0  0  0
 36 37  1  0  0  0  0
 37 38  1  0  0  0  0
 11 15  1  0  0  0  0
 21 24  1  0  0  0  0
 23 25  1  0  0  0  0
 35 36  1  0  0  0  0
M  END
>  <MolRegNo>
96892

>  <m>
=

>  <Value>
8000

>  <Unit>
nM

>  <Type>
Ki

>  <pValue>
5.1

>  <Ligand Efficiency>
0

>  <Binding Efficiency>
0

>  <Surface Efficiency>
0

>  <Assay Index>
51650

>  <Assay Category>


>  <Assay Organism>


>  <Target ID>
11365

>  <Target Name>
Cytochrome P450 2D6

>  <Target Organism>
Homo sapiens

>  <Target Description>
Target is a single protein chain

>  <Sequence Accession>
P10635

>  <Reference>
Bioorg Med Chem Lett 14 (9), 2025-2030 (2004)

>  <Pubmed ID>
15080972

>  <DOI>
10.1016/j.bmcl.2004.02.078

$$$$
96492
Actelion Java MolfileCreator 1.0

 35 38  0  0  0  0  0  0  0  0999 V2000
    0.0000   -0.0000   -0.0000 F   0  0  0  0  0  0  0  0  0  0  0  0
    1.2889   -0.7469   -0.0000 C   0  0  0  0  0  0  0  0  0  0  0  0
    2.6020    0.0241   -0.0000 C   0  0  0  0  0  0  0  0  0  0  0  0
    1.2769   -2.2406   -0.0000 C   0  0  0  0  0  0  0  0  0  0  0  0
    3.8909   -0.7228   -0.0000 C   0  0  0  0  0  0  0  0  0  0  0  0
    2.5779   -2.9874   -0.0000 C   0  0  0  0  0  0  0  0  0  0  0  0
    3.8789   -2.2165   -0.0000 C   0  0  0  0  0  0  0  0  0  0  0  0
    5.1678   -2.9633   -0.0000 N   0  0  0  0  0  0  0  0  0  0  0  0
    6.4567   -2.1924   -0.0000 C   0  0  0  0  0  0  0  0  0  0  0  0
    5.1557   -4.4571   -0.0000 C   0  0  0  0  0  0  0  0  0  0  0  0
    6.4447   -0.6746   -0.0000 O   0  0  0  0  0  0  0  0  0  0  0  0
    7.7577   -2.9393   -0.0000 C   0  0  0  0  0  0  0  0  0  0  0  0
    6.4567   -5.2039   -0.0000 C   0  0  0  0  0  0  0  0  0  0  0  0
    3.8427   -5.2039   -0.0000 C   0  0  0  0  0  0  0  0  0  0  0  0
    9.0587   -2.1683   -0.0000 C   0  0  0  0  0  0  0  0  0  0  0  0
    7.7457   -4.4450   -0.0000 C   0  0  0  0  0  0  0  0  0  0  0  0
    6.4447   -6.7097   -0.0000 C   0  0  0  0  0  0  0  0  0  0  0  0
    3.8307   -6.7097   -0.0000 C   0  0  0  0  0  0  0  0  0  0  0  0
   10.3476   -2.9152   -0.0000 C   0  0  0  0  0  0  0  0  0  0  0  0
    9.0346   -5.1919   -0.0000 C   0  0  0  0  0  0  0  0  0  0  0  0
    5.1196   -7.4566   -0.0000 N   0  0  0  0  0  0  0  0  0  0  0  0
   10.3356   -4.4209   -0.0000 C   0  0  0  0  0  0  0  0  0  0  0  0
    5.1076   -8.9503   -0.0000 C   0  0  0  0  0  0  0  0  0  0  0  0
    6.3965   -9.6730   -0.0000 C   0  0  0  0  0  0  0  0  0  0  0  0
    7.6854   -8.9262   -0.0000 O   0  0  0  0  0  0  0  0  0  0  0  0
    6.3844  -11.1909   -0.0000 C   0  0  0  0  0  0  0  0  0  0  0  0
    7.6734  -11.9377   -0.0000 O   0  0  0  0  0  0  0  0  0  0  0  0
    7.6613  -13.4314   -0.0000 C   0  0  0  0  0  0  0  0  0  0  0  0
    6.3483  -14.1783   -0.0000 C   0  0  0  0  0  0  0  0  0  0  0  0
    8.9503  -14.1783   -0.0000 C   0  0  0  0  0  0  0  0  0  0  0  0
    6.3363  -15.6841   -0.0000 C   0  0  0  0  0  0  0  0  0  0  0  0
    8.9382  -15.6841   -0.0000 C   0  0  0  0  0  0  0  0  0  0  0  0
    7.6252  -16.4309   -0.0000 C   0  0  0  0  0  0  0  0  0  0  0  0
    7.6372  -17.9246   -0.0000 O   0  0  0  0  0  0  0  0  0  0  0  0
    8.9262  -18.6474   -0.0000 C   0  0  0  0  0  0  0  0  0  0  0  0
  1  2  1  0  0  0  0
  2  3  2  0  0  0  0
  2  4  1  0  0  0  0
  3  5  1  0  0  0  0
  4  6  2  0  0  0  0
  5  7  2  0  0  0  0
  7  8  1  0  0  0  0
  8  9  1  0  0  0  0
  8 10  1  0  0  0  0
  9 11  2  0  0  0  0
  9 12  1  0  0  0  0
 10 13  1  0  0  0  0
 10 14  1  0  0  0  0
 12 15  2  0  0  0  0
 12 16  1  0  0  0  0
 13 17  1  0  0  0  0
 14 18  1  0  0  0  0
 15 19  1  0  0  0  0
 16 20  2  0  0  0  0
 17 21  1  0  0  0  0
 19 22  2  0  0  0  0
 21 23  1  0  0  0  0
 23 24  1  0  0  0  0
 24 25  1  0  0  0  0
 24 26  1  0  0  0  0
 26 27  1  0  0  0  0
 27 28  1  0  0  0  0
 28 29  2  0  0  0  0
 28 30  1  0  0  0  0
 29 31  1  0  0  0  0
 30 32  2  0  0  0  0
 31 33  2  0  0  0  0
 33 34  1  0  0  0  0
 34 35  1  0  0  0  0
  6  7  1  0  0  0  0
 18 21  1  0  0  0  0
 20 22  1  0  0  0  0
 32 33  1  0  0  0  0
M  END
>  <MolRegNo>
96492

>  <m>
=

>  <Value>
1000

>  <Unit>
nM

>  <Type>
Ki

>  <pValue>
6

>  <Ligand Efficiency>
0

>  <Binding Efficiency>
0

>  <Surface Efficiency>
0

>  <Assay Index>
51650

>  <Assay Category>


>  <Assay Organism>


>  <Target ID>
11365

>  <Target Name>
Cytochrome P450 2D6

>  <Target Organism>
Homo sapiens

>  <Target Description>
Target is a single protein chain

>  <Sequence Accession>
P10635

>  <Reference>
Bioorg Med Chem Lett 14 (9), 2025-2030 (2004)

>  <Pubmed ID>
15080972

>  <DOI>
10.1016/j.bmcl.2004.02.078

$$$$
97852
Actelion Java MolfileCreator 1.0

 37 40  0  0  0  0  0  0  0  0999 V2000
    0.0000   -0.0000   -0.0000 O   0  0  0  0  0  0  0  0  0  0  0  0
   -0.0119   -1.4880   -0.0000 C   0  0  0  0  0  0  0  0  0  0  0  0
    1.2737   -2.2261   -0.0000 N   0  0  0  0  0  0  0  0  0  0  0  0
   -1.3214   -2.2261   -0.0000 C   0  0  0  0  0  0  0  0  0  0  0  0
    2.5594   -1.4642   -0.0000 C   0  0  0  0  0  0  0  0  0  0  0  0
   -1.3333   -3.7141   -0.0000 N   0  0  0  0  0  0  0  0  0  0  0  0
   -2.6308   -1.4642   -0.0000 C   0  0  0  0  0  0  0  0  0  0  0  0
    2.5475    0.0476   -0.0000 C   0  0  0  0  0  0  0  0  0  0  0  0
   -2.6427   -4.4521   -0.0000 C   0  0  0  0  0  0  0  0  0  0  0  0
   -0.0476   -4.4521   -0.0000 C   0  0  0  0  0  0  0  0  0  0  0  0
   -3.9522   -2.2023   -0.0000 C   0  0  0  0  0  0  0  0  0  0  0  0
   -2.6427    0.0476   -0.0000 C   0  0  0  0  0  0  0  0  0  0  0  0
    3.8450    0.8095   -0.0000 C   0  0  0  0  0  0  0  0  0  0  0  0
    1.2380    0.8095   -0.0000 C   0  0  0  0  0  0  0  0  0  0  0  0
   -2.6546   -5.9520   -0.0000 C   0  0  0  0  0  0  0  0  0  0  0  0
   -0.0595   -5.9520   -0.0000 C   0  0  0  0  0  0  0  0  0  0  0  0
   -5.2616   -1.4404   -0.0000 C   0  0  0  0  0  0  0  0  0  0  0  0
   -3.9522    0.8095   -0.0000 C   0  0  0  0  0  0  0  0  0  0  0  0
    3.8331    2.3213   -0.0000 C   0  0  0  0  0  0  0  0  0  0  0  0
    1.2261    2.3213   -0.0000 C   0  0  0  0  0  0  0  0  0  0  0  0
   -1.3690   -6.6901   -0.0000 N   0  0  0  0  0  0  0  0  0  0  0  0
   -5.2735    0.0714   -0.0000 C   0  0  0  0  0  0  0  0  0  0  0  0
    2.5118    3.0951   -0.0000 C   0  0  0  0  0  0  0  0  0  0  0  0
   -1.3809   -8.1781   -0.0000 C   0  0  0  0  0  0  0  0  0  0  0  0
   -6.5949    0.8452   -0.0000 C   0  0  0  0  0  0  0  0  0  0  0  0
   -0.0952   -8.9162   -0.0000 C   0  0  0  0  0  0  0  0  0  0  0  0
    1.1904   -8.1543   -0.0000 O   0  0  0  0  0  0  0  0  0  0  0  0
   -0.1071  -10.4042   -0.0000 C   0  0  0  0  0  0  0  0  0  0  0  0
    1.1785  -11.1422   -0.0000 O   0  0  0  0  0  0  0  0  0  0  0  0
    1.1666  -12.6302   -0.0000 C   0  0  0  0  0  0  0  0  0  0  0  0
   -0.1428  -13.3683   -0.0000 C   0  0  0  0  0  0  0  0  0  0  0  0
    2.4522  -13.3683   -0.0000 C   0  0  0  0  0  0  0  0  0  0  0  0
   -0.1548  -14.8682   -0.0000 C   0  0  0  0  0  0  0  0  0  0  0  0
    2.4403  -14.8682   -0.0000 C   0  0  0  0  0  0  0  0  0  0  0  0
    1.1309  -15.6063   -0.0000 C   0  0  0  0  0  0  0  0  0  0  0  0
    1.1309  -17.0943   -0.0000 O   0  0  0  0  0  0  0  0  0  0  0  0
    2.4165  -17.8204   -0.0000 C   0  0  0  0  0  0  0  0  0  0  0  0
  1  2  2  0  0  0  0
  2  3  1  0  0  0  0
  2  4  1  0  0  0  0
  3  5  1  0  0  0  0
  4  6  1  0  0  0  0
  4  7  1  0  0  0  0
  5  8  1  0  0  0  0
  6  9  1  0  0  0  0
  6 10  1  0  0  0  0
  7 11  2  0  0  0  0
  7 12  1  0  0  0  0
  8 13  2  0  0  0  0
  8 14  1  0  0  0  0
  9 15  1  0  0  0  0
 10 16  1  0  0  0  0
 11 17  1  0  0  0  0
 12 18  2  0  0  0  0
 13 19  1  0  0  0  0
 14 20  2  0  0  0  0
 15 21  1  0  0  0  0
 17 22  2  0  0  0  0
 19 23  2  0  0  0  0
 21 24  1  0  0  0  0
 22 25  1  0  0  0  0
 24 26  1  0  0  0  0
 26 27  1  0  0  0  0
 26 28  1  0  0  0  0
 28 29  1  0  0  0  0
 29 30  1  0  0  0  0
 30 31  2  0  0  0  0
 30 32  1  0  0  0  0
 31 33  1  0  0  0  0
 32 34  2  0  0  0  0
 33 35  2  0  0  0  0
 35 36  1  0  0  0  0
 36 37  1  0  0  0  0
 16 21  1  0  0  0  0
 18 22  1  0  0  0  0
 20 23  1  0  0  0  0
 34 35  1  0  0  0  0
M  END
>  <MolRegNo>
97852

>  <m>
=

>  <Value>
4000

>  <Unit>
nM

>  <Type>
Ki

>  <pValue>
5.4

>  <Ligand Efficiency>
0

>  <Binding Efficiency>
0

>  <Surface Efficiency>
0

>  <Assay Index>
51650

>  <Assay Category>


>  <Assay Organism>


>  <Target ID>
11365

>  <Target Name>
Cytochrome P450 2D6

>  <Target Organism>
Homo sapiens

>  <Target Description>
Target is a single protein chain

>  <Sequence Accession>
P10635

>  <Reference>
Bioorg Med Chem Lett 14 (9), 2025-2030 (2004)

>  <Pubmed ID>
15080972

>  <DOI>
10.1016/j.bmcl.2004.02.078

$$$$
96373
Actelion Java MolfileCreator 1.0

 28 30  0  0  0  0  0  0  0  0999 V2000
    0.0000   -0.0000   -0.0000 Cl  0  0  0  0  0  0  0  0  0  0  0  0
    1.3022   -0.7526   -0.0000 C   0  0  0  0  0  0  0  0  0  0  0  0
    1.2902   -2.2460   -0.0000 C   0  0  0  0  0  0  0  0  0  0  0  0
    2.6044    0.0119   -0.0000 C   0  0  0  0  0  0  0  0  0  0  0  0
    2.5805   -2.9867   -0.0000 C   0  0  0  0  0  0  0  0  0  0  0  0
    3.8946   -0.7287   -0.0000 C   0  0  0  0  0  0  0  0  0  0  0  0
    3.8826   -2.2221   -0.0000 C   0  0  0  0  0  0  0  0  0  0  0  0
    5.1729   -2.9628   -0.0000 C   0  0  0  0  0  0  0  0  0  0  0  0
    5.1609   -4.4561   -0.0000 N   0  0  0  0  0  0  0  0  0  0  0  0
    6.4631   -2.2101   -0.0000 C   0  0  0  0  0  0  0  0  0  0  0  0
    6.4512   -5.1968   -0.0000 C   0  0  0  0  0  0  0  0  0  0  0  0
    3.8468   -5.1968   -0.0000 C   0  0  0  0  0  0  0  0  0  0  0  0
    6.4512   -0.6810   -0.0000 C   0  0  0  0  0  0  0  0  0  0  0  0
    7.7533   -2.9389   -0.0000 C   0  0  0  0  0  0  0  0  0  0  0  0
    6.4392   -6.7020   -0.0000 C   0  0  0  0  0  0  0  0  0  0  0  0
    3.8349   -6.7020   -0.0000 C   0  0  0  0  0  0  0  0  0  0  0  0
    7.7414    0.0836   -0.0000 C   0  0  0  0  0  0  0  0  0  0  0  0
    9.0436   -2.1743   -0.0000 C   0  0  0  0  0  0  0  0  0  0  0  0
    5.1251   -7.4427   -0.0000 N   0  0  0  0  0  0  0  0  0  0  0  0
    9.0316   -0.6571   -0.0000 C   0  0  0  0  0  0  0  0  0  0  0  0
    5.1131   -8.9361   -0.0000 C   0  0  0  0  0  0  0  0  0  0  0  0
    6.4034   -9.6768   -0.0000 C   0  0  0  0  0  0  0  0  0  0  0  0
    6.3914  -11.1701   -0.0000 O   0  0  0  0  0  0  0  0  0  0  0  0
    7.6936   -8.9122   -0.0000 C   0  0  0  0  0  0  0  0  0  0  0  0
    7.6817   -7.3949   -0.0000 O   0  0  0  0  0  0  0  0  0  0  0  0
    8.9719   -6.6304   -0.0000 C   0  0  0  0  0  0  0  0  0  0  0  0
    8.9600   -5.1012   -0.0000 C   0  0  0  0  0  0  0  0  0  0  0  0
   10.2502   -4.3366   -0.0000 C   0  0  0  0  0  0  0  0  0  0  0  0
  1  2  1  0  0  0  0
  2  3  2  0  0  0  0
  2  4  1  0  0  0  0
  3  5  1  0  0  0  0
  4  6  2  0  0  0  0
  5  7  2  0  0  0  0
  7  8  1  0  0  0  0
  8  9  1  0  0  0  0
  8 10  1  0  0  0  0
  9 11  1  0  0  0  0
  9 12  1  0  0  0  0
 10 13  2  0  0  0  0
 10 14  1  0  0  0  0
 11 15  1  0  0  0  0
 12 16  1  0  0  0  0
 13 17  1  0  0  0  0
 14 18  2  0  0  0  0
 15 19  1  0  0  0  0
 17 20  2  0  0  0  0
 19 21  1  0  0  0  0
 21 22  1  0  0  0  0
 22 23  1  0  0  0  0
 22 24  1  0  0  0  0
 24 25  1  0  0  0  0
 25 26  1  0  0  0  0
 26 27  1  0  0  0  0
 27 28  2  0  0  0  0
  6  7  1  0  0  0  0
 16 19  1  0  0  0  0
 18 20  1  0  0  0  0
M  END
>  <MolRegNo>
96373

>  <m>
=

>  <Value>
100

>  <Unit>
nM

>  <Type>
Ki

>  <pValue>
7

>  <Ligand Efficiency>
0

>  <Binding Efficiency>
0

>  <Surface Efficiency>
0

>  <Assay Index>
51650

>  <Assay Category>


>  <Assay Organism>


>  <Target ID>
11365

>  <Target Name>
Cytochrome P450 2D6

>  <Target Organism>
Homo sapiens

>  <Target Description>
Target is a single protein chain

>  <Sequence Accession>
P10635

>  <Reference>
Bioorg Med Chem Lett 14 (9), 2025-2030 (2004)

>  <Pubmed ID>
15080972

>  <DOI>
10.1016/j.bmcl.2004.02.078

$$$$
97978
Actelion Java MolfileCreator 1.0

 37 40  0  0  0  0  0  0  0  0999 V2000
    0.0000   -0.0000   -0.0000 F   0  0  0  0  0  0  0  0  0  0  0  0
    1.3077   -0.7558   -0.0000 C   0  0  0  0  0  0  0  0  0  0  0  0
    2.6034    0.0240   -0.0000 C   0  0  0  0  0  0  0  0  0  0  0  0
    1.2957   -2.2555   -0.0000 C   0  0  0  0  0  0  0  0  0  0  0  0
    3.8871   -0.7318   -0.0000 C   0  0  0  0  0  0  0  0  0  0  0  0
    2.5914   -2.9993   -0.0000 C   0  0  0  0  0  0  0  0  0  0  0  0
    3.8751   -2.2315   -0.0000 C   0  0  0  0  0  0  0  0  0  0  0  0
    5.1708   -2.9753   -0.0000 C   0  0  0  0  0  0  0  0  0  0  0  0
    5.1588   -4.4630   -0.0000 N   0  0  0  0  0  0  0  0  0  0  0  0
    6.4545   -2.2075   -0.0000 C   0  0  0  0  0  0  0  0  0  0  0  0
    3.8511   -5.2068   -0.0000 C   0  0  0  0  0  0  0  0  0  0  0  0
    6.4545   -5.2068   -0.0000 C   0  0  0  0  0  0  0  0  0  0  0  0
    6.4425   -0.6838   -0.0000 O   0  0  0  0  0  0  0  0  0  0  0  0
    7.7502   -2.9513   -0.0000 N   0  0  0  0  0  0  0  0  0  0  0  0
    3.8391   -6.6944   -0.0000 C   0  0  0  0  0  0  0  0  0  0  0  0
    6.4425   -6.6944   -0.0000 C   0  0  0  0  0  0  0  0  0  0  0  0
    9.0339   -2.1835   -0.0000 C   0  0  0  0  0  0  0  0  0  0  0  0
    5.1228   -7.4383   -0.0000 N   0  0  0  0  0  0  0  0  0  0  0  0
    9.0219   -0.6598   -0.0000 C   0  0  0  0  0  0  0  0  0  0  0  0
    5.1108   -8.9259   -0.0000 C   0  0  0  0  0  0  0  0  0  0  0  0
   10.3056    0.1200   -0.0000 C   0  0  0  0  0  0  0  0  0  0  0  0
    7.7142    0.1200   -0.0000 C   0  0  0  0  0  0  0  0  0  0  0  0
    6.3945   -9.6697   -0.0000 C   0  0  0  0  0  0  0  0  0  0  0  0
   10.2936    1.6316   -0.0000 C   0  0  0  0  0  0  0  0  0  0  0  0
    7.7022    1.6316   -0.0000 C   0  0  0  0  0  0  0  0  0  0  0  0
    7.6782   -8.9019   -0.0000 O   0  0  0  0  0  0  0  0  0  0  0  0
    6.3825  -11.1814   -0.0000 C   0  0  0  0  0  0  0  0  0  0  0  0
    8.9859    2.3994   -0.0000 C   0  0  0  0  0  0  0  0  0  0  0  0
    7.6662  -11.9132   -0.0000 O   0  0  0  0  0  0  0  0  0  0  0  0
    7.6542  -13.4129   -0.0000 C   0  0  0  0  0  0  0  0  0  0  0  0
    6.3345  -14.1567   -0.0000 C   0  0  0  0  0  0  0  0  0  0  0  0
    8.9379  -14.1567   -0.0000 C   0  0  0  0  0  0  0  0  0  0  0  0
    6.3225  -15.6443   -0.0000 C   0  0  0  0  0  0  0  0  0  0  0  0
    5.0268  -13.3889   -0.0000 C   0  0  0  0  0  0  0  0  0  0  0  0
    8.9259  -15.6443   -0.0000 C   0  0  0  0  0  0  0  0  0  0  0  0
   10.2336  -13.3889   -0.0000 C   0  0  0  0  0  0  0  0  0  0  0  0
    7.6182  -16.3882   -0.0000 C   0  0  0  0  0  0  0  0  0  0  0  0
  1  2  1  0  0  0  0
  2  3  2  0  0  0  0
  2  4  1  0  0  0  0
  3  5  1  0  0  0  0
  4  6  2  0  0  0  0
  5  7  2  0  0  0  0
  7  8  1  0  0  0  0
  8  9  1  0  0  0  0
  8 10  1  0  0  0  0
  9 11  1  0  0  0  0
  9 12  1  0  0  0  0
 10 13  2  0  0  0  0
 10 14  1  0  0  0  0
 11 15  1  0  0  0  0
 12 16  1  0  0  0  0
 14 17  1  0  0  0  0
 15 18  1  0  0  0  0
 17 19  1  0  0  0  0
 18 20  1  0  0  0  0
 19 21  2  0  0  0  0
 19 22  1  0  0  0  0
 20 23  1  0  0  0  0
 21 24  1  0  0  0  0
 22 25  2  0  0  0  0
 23 26  1  0  0  0  0
 23 27  1  0  0  0  0
 24 28  2  0  0  0  0
 27 29  1  0  0  0  0
 29 30  1  0  0  0  0
 30 31  2  0  0  0  0
 30 32  1  0  0  0  0
 31 33  1  0  0  0  0
 31 34  1  0  0  0  0
 32 35  2  0  0  0  0
 32 36  1  0  0  0  0
 33 37  2  0  0  0  0
  6  7  1  0  0  0  0
 16 18  1  0  0  0  0
 25 28  1  0  0  0  0
 35 37  1  0  0  0  0
M  END
>  <MolRegNo>
97978

>  <m>
=

>  <Value>
2000

>  <Unit>
nM

>  <Type>
Ki

>  <pValue>
5.7

>  <Ligand Efficiency>
0

>  <Binding Efficiency>
0

>  <Surface Efficiency>
0

>  <Assay Index>
51650

>  <Assay Category>


>  <Assay Organism>


>  <Target ID>
11365

>  <Target Name>
Cytochrome P450 2D6

>  <Target Organism>
Homo sapiens

>  <Target Description>
Target is a single protein chain

>  <Sequence Accession>
P10635

>  <Reference>
Bioorg Med Chem Lett 14 (9), 2025-2030 (2004)

>  <Pubmed ID>
15080972

>  <DOI>
10.1016/j.bmcl.2004.02.078

$$$$
97326
Actelion Java MolfileCreator 1.0

 37 40  0  0  0  0  0  0  0  0999 V2000
    0.0000   -0.0000   -0.0000 F   0  0  0  0  0  0  0  0  0  0  0  0
   -0.0120   -1.4980   -0.0000 C   0  0  0  0  0  0  0  0  0  0  0  0
   -1.3302   -2.2410   -0.0000 C   0  0  0  0  0  0  0  0  0  0  0  0
    1.2942   -2.2410   -0.0000 C   0  0  0  0  0  0  0  0  0  0  0  0
   -1.3422   -3.7509   -0.0000 C   0  0  0  0  0  0  0  0  0  0  0  0
    1.2823   -3.7509   -0.0000 C   0  0  0  0  0  0  0  0  0  0  0  0
   -0.0479   -4.4939   -0.0000 C   0  0  0  0  0  0  0  0  0  0  0  0
   -0.0599   -5.9919   -0.0000 C   0  0  0  0  0  0  0  0  0  0  0  0
   -1.1025   -6.5551   -0.0000 O   0  0  0  0  0  0  0  0  0  0  0  0
    1.2463   -6.7349   -0.0000 N   0  0  0  0  0  0  0  0  0  0  0  0
    1.2343   -8.2328   -0.0000 C   0  0  0  0  0  0  0  0  0  0  0  0
   -0.0839   -8.9758   -0.0000 C   0  0  0  0  0  0  0  0  0  0  0  0
   -0.0959  -10.4738   -0.0000 N   0  0  0  0  0  0  0  0  0  0  0  0
   -1.5579   -8.5804   -0.0000 C   0  0  0  0  0  0  0  0  0  0  0  0
   -1.4141  -11.2168   -0.0000 C   0  0  0  0  0  0  0  0  0  0  0  0
    1.1984  -11.2168   -0.0000 C   0  0  0  0  0  0  0  0  0  0  0  0
   -1.9534   -7.0824   -0.0000 C   0  0  0  0  0  0  0  0  0  0  0  0
   -2.6484   -9.6349   -0.0000 C   0  0  0  0  0  0  0  0  0  0  0  0
   -1.4261  -12.7268   -0.0000 C   0  0  0  0  0  0  0  0  0  0  0  0
    1.1864  -12.7268   -0.0000 C   0  0  0  0  0  0  0  0  0  0  0  0
   -3.4393   -6.6869   -0.0000 C   0  0  0  0  0  0  0  0  0  0  0  0
   -4.1224   -9.2395   -0.0000 C   0  0  0  0  0  0  0  0  0  0  0  0
   -0.1318  -13.4698   -0.0000 N   0  0  0  0  0  0  0  0  0  0  0  0
   -4.5299   -7.7535   -0.0000 C   0  0  0  0  0  0  0  0  0  0  0  0
   -0.1438  -14.9677   -0.0000 C   0  0  0  0  0  0  0  0  0  0  0  0
    1.1504  -15.7107   -0.0000 C   0  0  0  0  0  0  0  0  0  0  0  0
    2.4447  -14.9438   -0.0000 O   0  0  0  0  0  0  0  0  0  0  0  0
    1.1385  -17.2087   -0.0000 C   0  0  0  0  0  0  0  0  0  0  0  0
    2.4327  -17.9517   -0.0000 O   0  0  0  0  0  0  0  0  0  0  0  0
    2.4207  -19.4497   -0.0000 C   0  0  0  0  0  0  0  0  0  0  0  0
    1.0905  -20.1926   -0.0000 C   0  0  0  0  0  0  0  0  0  0  0  0
    3.7150  -20.1926   -0.0000 C   0  0  0  0  0  0  0  0  0  0  0  0
    1.0785  -21.7026   -0.0000 C   0  0  0  0  0  0  0  0  0  0  0  0
    3.7030  -21.7026   -0.0000 C   0  0  0  0  0  0  0  0  0  0  0  0
    2.3848  -22.4456   -0.0000 C   0  0  0  0  0  0  0  0  0  0  0  0
    2.3848  -23.9196   -0.0000 O   0  0  0  0  0  0  0  0  0  0  0  0
    3.6790  -24.6626   -0.0000 C   0  0  0  0  0  0  0  0  0  0  0  0
  1  2  1  0  0  0  0
  2  3  2  0  0  0  0
  2  4  1  0  0  0  0
  3  5  1  0  0  0  0
  4  6  2  0  0  0  0
  5  7  2  0  0  0  0
  7  8  1  0  0  0  0
  8  9  2  0  0  0  0
  8 10  1  0  0  0  0
 10 11  1  0  0  0  0
 11 12  1  0  0  0  0
 12 13  1  0  0  0  0
 12 14  1  0  0  0  0
 13 15  1  0  0  0  0
 13 16  1  0  0  0  0
 14 17  2  0  0  0  0
 14 18  1  0  0  0  0
 15 19  1  0  0  0  0
 16 20  1  0  0  0  0
 17 21  1  0  0  0  0
 18 22  2  0  0  0  0
 19 23  1  0  0  0  0
 21 24  2  0  0  0  0
 23 25  1  0  0  0  0
 25 26  1  0  0  0  0
 26 27  1  0  0  0  0
 26 28  1  0  0  0  0
 28 29  1  0  0  0  0
 29 30  1  0  0  0  0
 30 31  2  0  0  0  0
 30 32  1  0  0  0  0
 31 33  1  0  0  0  0
 32 34  2  0  0  0  0
 33 35  2  0  0  0  0
 35 36  1  0  0  0  0
 36 37  1  0  0  0  0
  6  7  1  0  0  0  0
 20 23  1  0  0  0  0
 22 24  1  0  0  0  0
 34 35  1  0  0  0  0
M  END
>  <MolRegNo>
97326

>  <m>
=

>  <Value>
3000

>  <Unit>
nM

>  <Type>
Ki

>  <pValue>
5.52

>  <Ligand Efficiency>
0

>  <Binding Efficiency>
0

>  <Surface Efficiency>
0

>  <Assay Index>
51650

>  <Assay Category>


>  <Assay Organism>


>  <Target ID>
11365

>  <Target Name>
Cytochrome P450 2D6

>  <Target Organism>
Homo sapiens

>  <Target Description>
Target is a single protein chain

>  <Sequence Accession>
P10635

>  <Reference>
Bioorg Med Chem Lett 14 (9), 2025-2030 (2004)

>  <Pubmed ID>
15080972

>  <DOI>
10.1016/j.bmcl.2004.02.078

$$$$
96887
Actelion Java MolfileCreator 1.0

 37 40  0  0  0  0  0  0  0  0999 V2000
    0.0000   -0.0000   -0.0000 O   0  0  0  0  0  0  0  0  0  0  0  0
   -0.0119   -1.4861   -0.0000 C   0  0  0  0  0  0  0  0  0  0  0  0
    1.2721   -2.2232   -0.0000 N   0  0  0  0  0  0  0  0  0  0  0  0
   -1.3197   -2.2232   -0.0000 C   0  0  0  0  0  0  0  0  0  0  0  0
    2.5561   -1.4623   -0.0000 C   0  0  0  0  0  0  0  0  0  0  0  0
   -1.3315   -3.7093   -0.0000 N   0  0  0  0  0  0  0  0  0  0  0  0
   -2.6274   -1.4623   -0.0000 C   0  0  0  0  0  0  0  0  0  0  0  0
    2.5442    0.0476   -0.0000 C   0  0  0  0  0  0  0  0  0  0  0  0
   -2.6393   -4.4464   -0.0000 C   0  0  0  0  0  0  0  0  0  0  0  0
   -0.0476   -4.4464   -0.0000 C   0  0  0  0  0  0  0  0  0  0  0  0
   -2.6393    0.0476   -0.0000 C   0  0  0  0  0  0  0  0  0  0  0  0
   -3.9471   -2.1994   -0.0000 C   0  0  0  0  0  0  0  0  0  0  0  0
    3.8401    0.8084   -0.0000 C   0  0  0  0  0  0  0  0  0  0  0  0
    1.2364    0.8084   -0.0000 C   0  0  0  0  0  0  0  0  0  0  0  0
   -2.6512   -5.9444   -0.0000 C   0  0  0  0  0  0  0  0  0  0  0  0
   -0.0594   -5.9444   -0.0000 C   0  0  0  0  0  0  0  0  0  0  0  0
   -3.9471    0.8084   -0.0000 C   0  0  0  0  0  0  0  0  0  0  0  0
   -5.2548   -1.4385   -0.0000 C   0  0  0  0  0  0  0  0  0  0  0  0
    3.8282    2.3183   -0.0000 C   0  0  0  0  0  0  0  0  0  0  0  0
    1.2245    2.3183   -0.0000 C   0  0  0  0  0  0  0  0  0  0  0  0
   -1.3672   -6.6815   -0.0000 N   0  0  0  0  0  0  0  0  0  0  0  0
   -5.2667    0.0713   -0.0000 C   0  0  0  0  0  0  0  0  0  0  0  0
    2.5085    3.0911   -0.0000 C   0  0  0  0  0  0  0  0  0  0  0  0
   -1.3791   -8.1676   -0.0000 C   0  0  0  0  0  0  0  0  0  0  0  0
   -6.5864    0.8441   -0.0000 C   0  0  0  0  0  0  0  0  0  0  0  0
   -0.0951   -8.9047   -0.0000 C   0  0  0  0  0  0  0  0  0  0  0  0
    1.1889   -8.1438   -0.0000 O   0  0  0  0  0  0  0  0  0  0  0  0
   -0.1070  -10.3908   -0.0000 C   0  0  0  0  0  0  0  0  0  0  0  0
    1.1770  -11.1279   -0.0000 O   0  0  0  0  0  0  0  0  0  0  0  0
    1.1651  -12.6140   -0.0000 C   0  0  0  0  0  0  0  0  0  0  0  0
    2.4491  -13.3511   -0.0000 C   0  0  0  0  0  0  0  0  0  0  0  0
   -0.1427  -13.3511   -0.0000 C   0  0  0  0  0  0  0  0  0  0  0  0
    2.4372  -14.8490   -0.0000 C   0  0  0  0  0  0  0  0  0  0  0  0
    3.7450  -12.5783   -0.0000 C   0  0  0  0  0  0  0  0  0  0  0  0
   -0.1546  -14.8490   -0.0000 C   0  0  0  0  0  0  0  0  0  0  0  0
   -1.4623  -12.5783   -0.0000 C   0  0  0  0  0  0  0  0  0  0  0  0
    1.1294  -15.5861   -0.0000 C   0  0  0  0  0  0  0  0  0  0  0  0
  1  2  2  0  0  0  0
  2  3  1  0  0  0  0
  2  4  1  0  0  0  0
  3  5  1  0  0  0  0
  4  6  1  0  0  0  0
  4  7  1  0  0  0  0
  5  8  1  0  0  0  0
  6  9  1  0  0  0  0
  6 10  1  0  0  0  0
  7 11  2  0  0  0  0
  7 12  1  0  0  0  0
  8 13  2  0  0  0  0
  8 14  1  0  0  0  0
  9 15  1  0  0  0  0
 10 16  1  0  0  0  0
 11 17  1  0  0  0  0
 12 18  2  0  0  0  0
 13 19  1  0  0  0  0
 14 20  2  0  0  0  0
 15 21  1  0  0  0  0
 17 22  2  0  0  0  0
 19 23  2  0  0  0  0
 21 24  1  0  0  0  0
 22 25  1  0  0  0  0
 24 26  1  0  0  0  0
 26 27  1  0  0  0  0
 26 28  1  0  0  0  0
 28 29  1  0  0  0  0
 29 30  1  0  0  0  0
 30 31  2  0  0  0  0
 30 32  1  0  0  0  0
 31 33  1  0  0  0  0
 31 34  1  0  0  0  0
 32 35  2  0  0  0  0
 32 36  1  0  0  0  0
 33 37  2  0  0  0  0
 16 21  1  0  0  0  0
 18 22  1  0  0  0  0
 20 23  1  0  0  0  0
 35 37  1  0  0  0  0
M  END
>  <MolRegNo>
96887

>  <m>
=

>  <Value>
2000

>  <Unit>
nM

>  <Type>
Ki

>  <pValue>
5.7

>  <Ligand Efficiency>
0

>  <Binding Efficiency>
0

>  <Surface Efficiency>
0

>  <Assay Index>
51650

>  <Assay Category>


>  <Assay Organism>


>  <Target ID>
11365

>  <Target Name>
Cytochrome P450 2D6

>  <Target Organism>
Homo sapiens

>  <Target Description>
Target is a single protein chain

>  <Sequence Accession>
P10635

>  <Reference>
Bioorg Med Chem Lett 14 (9), 2025-2030 (2004)

>  <Pubmed ID>
15080972

>  <DOI>
10.1016/j.bmcl.2004.02.078

$$$$
97455
Actelion Java MolfileCreator 1.0

 39 42  0  0  0  0  0  0  0  0999 V2000
    0.0000   -0.0000   -0.0000 Cl  0  0  0  0  0  0  0  0  0  0  0  0
   -0.0237    1.5068   -0.0000 C   0  0  0  0  0  0  0  0  0  0  0  0
    1.2576    2.2661   -0.0000 C   0  0  0  0  0  0  0  0  0  0  0  0
   -1.3407    2.2661   -0.0000 C   0  0  0  0  0  0  0  0  0  0  0  0
    1.2458    3.7729   -0.0000 C   0  0  0  0  0  0  0  0  0  0  0  0
   -1.3525    3.7729   -0.0000 C   0  0  0  0  0  0  0  0  0  0  0  0
   -0.0593    4.5322   -0.0000 C   0  0  0  0  0  0  0  0  0  0  0  0
   -0.0712    6.0509   -0.0000 O   0  0  0  0  0  0  0  0  0  0  0  0
   -1.3763    6.7983   -0.0000 C   0  0  0  0  0  0  0  0  0  0  0  0
   -1.3881    8.3170   -0.0000 C   0  0  0  0  0  0  0  0  0  0  0  0
   -0.1068    9.0763   -0.0000 O   0  0  0  0  0  0  0  0  0  0  0  0
   -2.6932    9.0763   -0.0000 C   0  0  0  0  0  0  0  0  0  0  0  0
   -2.7051   10.5831   -0.0000 N   0  0  0  0  0  0  0  0  0  0  0  0
   -4.0102   11.3424   -0.0000 C   0  0  0  0  0  0  0  0  0  0  0  0
   -1.4237   11.3424   -0.0000 C   0  0  0  0  0  0  0  0  0  0  0  0
   -4.0220   12.8492   -0.0000 C   0  0  0  0  0  0  0  0  0  0  0  0
   -1.4356   12.8492   -0.0000 C   0  0  0  0  0  0  0  0  0  0  0  0
   -2.7407   13.6085   -0.0000 N   0  0  0  0  0  0  0  0  0  0  0  0
   -2.7525   15.1153   -0.0000 C   0  0  0  0  0  0  0  0  0  0  0  0
   -4.2119   15.5305   -0.0000 C   0  0  0  0  0  0  0  0  0  0  0  0
   -1.4712   15.8746   -0.0000 C   0  0  0  0  0  0  0  0  0  0  0  0
   -4.6034   17.0017   -0.0000 C   0  0  0  0  0  0  0  0  0  0  0  0
   -5.2915   14.4746   -0.0000 C   0  0  0  0  0  0  0  0  0  0  0  0
   -1.4831   17.3932   -0.0000 N   0  0  0  0  0  0  0  0  0  0  0  0
   -6.0746   17.4170   -0.0000 C   0  0  0  0  0  0  0  0  0  0  0  0
   -6.7509   14.8661   -0.0000 C   0  0  0  0  0  0  0  0  0  0  0  0
   -2.8000   18.1526   -0.0000 C   0  0  0  0  0  0  0  0  0  0  0  0
   -7.1542   16.3610   -0.0000 C   0  0  0  0  0  0  0  0  0  0  0  0
   -3.8322   17.5949   -0.0000 O   0  0  0  0  0  0  0  0  0  0  0  0
   -2.8119   19.6593   -0.0000 C   0  0  0  0  0  0  0  0  0  0  0  0
   -1.5186   20.4187   -0.0000 C   0  0  0  0  0  0  0  0  0  0  0  0
   -4.1170   20.4187   -0.0000 C   0  0  0  0  0  0  0  0  0  0  0  0
   -1.5305   21.9255   -0.0000 C   0  0  0  0  0  0  0  0  0  0  0  0
   -4.1288   21.9255   -0.0000 C   0  0  0  0  0  0  0  0  0  0  0  0
   -2.8475   22.6848   -0.0000 C   0  0  0  0  0  0  0  0  0  0  0  0
   -2.8712   24.2034   -0.0000 C   0  0  0  0  0  0  0  0  0  0  0  0
   -1.3881   24.2153   -0.0000 F   0  0  0  0  0  0  0  0  0  0  0  0
   -4.3898   24.1797   -0.0000 F   0  0  0  0  0  0  0  0  0  0  0  0
   -2.9068   25.6865   -0.0000 F   0  0  0  0  0  0  0  0  0  0  0  0
  1  2  1  0  0  0  0
  2  3  2  0  0  0  0
  2  4  1  0  0  0  0
  3  5  1  0  0  0  0
  4  6  2  0  0  0  0
  5  7  2  0  0  0  0
  7  8  1  0  0  0  0
  8  9  1  0  0  0  0
  9 10  1  0  0  0  0
 10 11  1  0  0  0  0
 10 12  1  0  0  0  0
 12 13  1  0  0  0  0
 13 14  1  0  0  0  0
 13 15  1  0  0  0  0
 14 16  1  0  0  0  0
 15 17  1  0  0  0  0
 16 18  1  0  0  0  0
 18 19  1  0  0  0  0
 19 20  1  0  0  0  0
 19 21  1  0  0  0  0
 20 22  2  0  0  0  0
 20 23  1  0  0  0  0
 21 24  1  0  0  0  0
 22 25  1  0  0  0  0
 23 26  2  0  0  0  0
 24 27  1  0  0  0  0
 25 28  2  0  0  0  0
 27 29  2  0  0  0  0
 27 30  1  0  0  0  0
 30 31  2  0  0  0  0
 30 32  1  0  0  0  0
 31 33  1  0  0  0  0
 32 34  2  0  0  0  0
 33 35  2  0  0  0  0
 35 36  1  0  0  0  0
 36 37  1  0  0  0  0
 36 38  1  0  0  0  0
 36 39  1  0  0  0  0
  6  7  1  0  0  0  0
 17 18  1  0  0  0  0
 26 28  1  0  0  0  0
 34 35  1  0  0  0  0
M  END
>  <MolRegNo>
97455

>  <m>
=

>  <Value>
1000

>  <Unit>
nM

>  <Type>
Ki

>  <pValue>
6

>  <Ligand Efficiency>
0

>  <Binding Efficiency>
0

>  <Surface Efficiency>
0

>  <Assay Index>
51650

>  <Assay Category>


>  <Assay Organism>


>  <Target ID>
11365

>  <Target Name>
Cytochrome P450 2D6

>  <Target Organism>
Homo sapiens

>  <Target Description>
Target is a single protein chain

>  <Sequence Accession>
P10635

>  <Reference>
Bioorg Med Chem Lett 14 (9), 2025-2030 (2004)

>  <Pubmed ID>
15080972

>  <DOI>
10.1016/j.bmcl.2004.02.078

$$$$
96460
Actelion Java MolfileCreator 1.0

 34 37  0  0  0  0  0  0  0  0999 V2000
    0.0000   -0.0000   -0.0000 F   0  0  0  0  0  0  0  0  0  0  0  0
    1.3086   -0.7443   -0.0000 C   0  0  0  0  0  0  0  0  0  0  0  0
    2.0529    0.5883   -0.0000 F   0  0  0  0  0  0  0  0  0  0  0  0
    0.5402   -2.0529   -0.0000 F   0  0  0  0  0  0  0  0  0  0  0  0
    2.6171   -1.5006   -0.0000 C   0  0  0  0  0  0  0  0  0  0  0  0
    3.9137   -0.7323   -0.0000 C   0  0  0  0  0  0  0  0  0  0  0  0
    2.6051   -3.0013   -0.0000 C   0  0  0  0  0  0  0  0  0  0  0  0
    5.1982   -1.4766   -0.0000 C   0  0  0  0  0  0  0  0  0  0  0  0
    3.8897   -3.7456   -0.0000 C   0  0  0  0  0  0  0  0  0  0  0  0
    5.1862   -2.9773   -0.0000 C   0  0  0  0  0  0  0  0  0  0  0  0
    6.4828   -3.7216   -0.0000 C   0  0  0  0  0  0  0  0  0  0  0  0
    6.4708   -5.2102   -0.0000 N   0  0  0  0  0  0  0  0  0  0  0  0
    7.7673   -2.9533   -0.0000 C   0  0  0  0  0  0  0  0  0  0  0  0
    7.7553   -5.9545   -0.0000 C   0  0  0  0  0  0  0  0  0  0  0  0
    5.1622   -5.9545   -0.0000 C   0  0  0  0  0  0  0  0  0  0  0  0
    9.0518   -3.6976   -0.0000 C   0  0  0  0  0  0  0  0  0  0  0  0
    7.7553   -1.4286   -0.0000 C   0  0  0  0  0  0  0  0  0  0  0  0
    7.7433   -7.4432   -0.0000 C   0  0  0  0  0  0  0  0  0  0  0  0
    5.1502   -7.4432   -0.0000 C   0  0  0  0  0  0  0  0  0  0  0  0
   10.3364   -2.9292   -0.0000 C   0  0  0  0  0  0  0  0  0  0  0  0
    9.0398   -0.6603   -0.0000 C   0  0  0  0  0  0  0  0  0  0  0  0
    6.4347   -8.1875   -0.0000 N   0  0  0  0  0  0  0  0  0  0  0  0
   10.3244   -1.4046   -0.0000 C   0  0  0  0  0  0  0  0  0  0  0  0
    6.4227   -9.6761   -0.0000 C   0  0  0  0  0  0  0  0  0  0  0  0
    7.7073  -10.4204   -0.0000 C   0  0  0  0  0  0  0  0  0  0  0  0
    7.6953  -11.9331   -0.0000 O   0  0  0  0  0  0  0  0  0  0  0  0
    8.9918   -9.6521   -0.0000 C   0  0  0  0  0  0  0  0  0  0  0  0
    8.9798   -8.1395   -0.0000 O   0  0  0  0  0  0  0  0  0  0  0  0
   10.2644   -7.3711   -0.0000 C   0  0  0  0  0  0  0  0  0  0  0  0
   10.2524   -5.8465   -0.0000 C   0  0  0  0  0  0  0  0  0  0  0  0
   11.5489   -8.1154   -0.0000 C   0  0  0  0  0  0  0  0  0  0  0  0
   11.5369   -5.0782   -0.0000 C   0  0  0  0  0  0  0  0  0  0  0  0
   12.8335   -7.3471   -0.0000 C   0  0  0  0  0  0  0  0  0  0  0  0
   12.8214   -5.8225   -0.0000 C   0  0  0  0  0  0  0  0  0  0  0  0
  1  2  1  0  0  0  0
  2  3  1  0  0  0  0
  2  4  1  0  0  0  0
  2  5  1  0  0  0  0
  5  6  2  0  0  0  0
  5  7  1  0  0  0  0
  6  8  1  0  0  0  0
  7  9  2  0  0  0  0
  8 10  2  0  0  0  0
 10 11  1  0  0  0  0
 11 12  1  0  0  0  0
 11 13  1  0  0  0  0
 12 14  1  0  0  0  0
 12 15  1  0  0  0  0
 13 16  2  0  0  0  0
 13 17  1  0  0  0  0
 14 18  1  0  0  0  0
 15 19  1  0  0  0  0
 16 20  1  0  0  0  0
 17 21  2  0  0  0  0
 18 22  1  0  0  0  0
 20 23  2  0  0  0  0
 22 24  1  0  0  0  0
 24 25  1  0  0  0  0
 25 26  1  0  0  0  0
 25 27  1  0  0  0  0
 27 28  1  0  0  0  0
 28 29  1  0  0  0  0
 29 30  2  0  0  0  0
 29 31  1  0  0  0  0
 30 32  1  0  0  0  0
 31 33  2  0  0  0  0
 32 34  2  0  0  0  0
  9 10  1  0  0  0  0
 19 22  1  0  0  0  0
 21 23  1  0  0  0  0
 33 34  1  0  0  0  0
M  END
>  <MolRegNo>
96460

>  <m>
=

>  <Value>
600

>  <Unit>
nM

>  <Type>
Ki

>  <pValue>
6.22

>  <Ligand Efficiency>
0

>  <Binding Efficiency>
0

>  <Surface Efficiency>
0

>  <Assay Index>
51650

>  <Assay Category>


>  <Assay Organism>


>  <Target ID>
11365

>  <Target Name>
Cytochrome P450 2D6

>  <Target Organism>
Homo sapiens

>  <Target Description>
Target is a single protein chain

>  <Sequence Accession>
P10635

>  <Reference>
Bioorg Med Chem Lett 14 (9), 2025-2030 (2004)

>  <Pubmed ID>
15080972

>  <DOI>
10.1016/j.bmcl.2004.02.078

$$$$
97880
Actelion Java MolfileCreator 1.0

 39 42  0  0  0  0  0  0  0  0999 V2000
    0.0000   -0.0000   -0.0000 O   0  0  0  0  0  0  0  0  0  0  0  0
   -0.0119   -1.4866   -0.0000 C   0  0  0  0  0  0  0  0  0  0  0  0
    1.2725   -2.2239   -0.0000 N   0  0  0  0  0  0  0  0  0  0  0  0
   -1.3201   -2.2239   -0.0000 C   0  0  0  0  0  0  0  0  0  0  0  0
    2.5569   -1.4628   -0.0000 C   0  0  0  0  0  0  0  0  0  0  0  0
   -1.3320   -3.7105   -0.0000 N   0  0  0  0  0  0  0  0  0  0  0  0
   -2.6283   -1.4628   -0.0000 C   0  0  0  0  0  0  0  0  0  0  0  0
    2.5451    0.0476   -0.0000 C   0  0  0  0  0  0  0  0  0  0  0  0
   -2.6402   -4.4479   -0.0000 C   0  0  0  0  0  0  0  0  0  0  0  0
   -0.0476   -4.4479   -0.0000 C   0  0  0  0  0  0  0  0  0  0  0  0
   -2.6402    0.0476   -0.0000 C   0  0  0  0  0  0  0  0  0  0  0  0
   -3.9484   -2.2002   -0.0000 C   0  0  0  0  0  0  0  0  0  0  0  0
    3.8414    0.8087   -0.0000 C   0  0  0  0  0  0  0  0  0  0  0  0
    1.2368    0.8087   -0.0000 C   0  0  0  0  0  0  0  0  0  0  0  0
   -2.6521   -5.9464   -0.0000 C   0  0  0  0  0  0  0  0  0  0  0  0
   -0.0595   -5.9464   -0.0000 C   0  0  0  0  0  0  0  0  0  0  0  0
   -3.9484    0.8087   -0.0000 C   0  0  0  0  0  0  0  0  0  0  0  0
   -5.2566   -1.4390   -0.0000 C   0  0  0  0  0  0  0  0  0  0  0  0
    3.8295    2.3191   -0.0000 C   0  0  0  0  0  0  0  0  0  0  0  0
    1.2250    2.3191   -0.0000 C   0  0  0  0  0  0  0  0  0  0  0  0
   -1.3677   -6.6837   -0.0000 N   0  0  0  0  0  0  0  0  0  0  0  0
   -5.2685    0.0714   -0.0000 C   0  0  0  0  0  0  0  0  0  0  0  0
    2.5094    3.0921   -0.0000 C   0  0  0  0  0  0  0  0  0  0  0  0
   -1.3796   -8.1703   -0.0000 C   0  0  0  0  0  0  0  0  0  0  0  0
   -6.5886    0.8444   -0.0000 C   0  0  0  0  0  0  0  0  0  0  0  0
    2.4975    4.5787   -0.0000 O   0  0  0  0  0  0  0  0  0  0  0  0
   -0.0951   -8.9077   -0.0000 C   0  0  0  0  0  0  0  0  0  0  0  0
    3.7819    5.3399   -0.0000 C   0  0  0  0  0  0  0  0  0  0  0  0
    1.1893   -8.1466   -0.0000 O   0  0  0  0  0  0  0  0  0  0  0  0
   -0.1070  -10.3943   -0.0000 C   0  0  0  0  0  0  0  0  0  0  0  0
    1.1774  -11.1316   -0.0000 O   0  0  0  0  0  0  0  0  0  0  0  0
    1.1655  -12.6182   -0.0000 C   0  0  0  0  0  0  0  0  0  0  0  0
    2.4499  -13.3556   -0.0000 C   0  0  0  0  0  0  0  0  0  0  0  0
   -0.1427  -13.3556   -0.0000 C   0  0  0  0  0  0  0  0  0  0  0  0
    2.4380  -14.8541   -0.0000 C   0  0  0  0  0  0  0  0  0  0  0  0
    3.7462  -12.5826   -0.0000 C   0  0  0  0  0  0  0  0  0  0  0  0
   -0.1546  -14.8541   -0.0000 C   0  0  0  0  0  0  0  0  0  0  0  0
   -1.4628  -12.5826   -0.0000 C   0  0  0  0  0  0  0  0  0  0  0  0
    1.1298  -15.5914   -0.0000 C   0  0  0  0  0  0  0  0  0  0  0  0
  1  2  2  0  0  0  0
  2  3  1  0  0  0  0
  2  4  1  0  0  0  0
  3  5  1  0  0  0  0
  4  6  1  0  0  0  0
  4  7  1  0  0  0  0
  5  8  1  0  0  0  0
  6  9  1  0  0  0  0
  6 10  1  0  0  0  0
  7 11  2  0  0  0  0
  7 12  1  0  0  0  0
  8 13  2  0  0  0  0
  8 14  1  0  0  0  0
  9 15  1  0  0  0  0
 10 16  1  0  0  0  0
 11 17  1  0  0  0  0
 12 18  2  0  0  0  0
 13 19  1  0  0  0  0
 14 20  2  0  0  0  0
 15 21  1  0  0  0  0
 17 22  2  0  0  0  0
 19 23  2  0  0  0  0
 21 24  1  0  0  0  0
 22 25  1  0  0  0  0
 23 26  1  0  0  0  0
 24 27  1  0  0  0  0
 26 28  1  0  0  0  0
 27 29  1  0  0  0  0
 27 30  1  0  0  0  0
 30 31  1  0  0  0  0
 31 32  1  0  0  0  0
 32 33  2  0  0  0  0
 32 34  1  0  0  0  0
 33 35  1  0  0  0  0
 33 36  1  0  0  0  0
 34 37  2  0  0  0  0
 34 38  1  0  0  0  0
 35 39  2  0  0  0  0
 16 21  1  0  0  0  0
 18 22  1  0  0  0  0
 20 23  1  0  0  0  0
 37 39  1  0  0  0  0
M  END
>  <MolRegNo>
97880

>  <m>
=

>  <Value>
3000

>  <Unit>
nM

>  <Type>
Ki

>  <pValue>
5.52

>  <Ligand Efficiency>
0

>  <Binding Efficiency>
0

>  <Surface Efficiency>
0

>  <Assay Index>
51650

>  <Assay Category>


>  <Assay Organism>


>  <Target ID>
11365

>  <Target Name>
Cytochrome P450 2D6

>  <Target Organism>
Homo sapiens

>  <Target Description>
Target is a single protein chain

>  <Sequence Accession>
P10635

>  <Reference>
Bioorg Med Chem Lett 14 (9), 2025-2030 (2004)

>  <Pubmed ID>
15080972

>  <DOI>
10.1016/j.bmcl.2004.02.078

$$$$
97847
Actelion Java MolfileCreator 1.0

 42 45  0  0  0  0  0  0  0  0999 V2000
    0.0000   -0.0000   -0.0000 F   0  0  0  0  0  0  0  0  0  0  0  0
    1.2991   -0.7508   -0.0000 C   0  0  0  0  0  0  0  0  0  0  0  0
    2.0380    0.5721   -0.0000 F   0  0  0  0  0  0  0  0  0  0  0  0
    0.5244   -2.0499   -0.0000 F   0  0  0  0  0  0  0  0  0  0  0  0
    2.5982   -1.4898   -0.0000 C   0  0  0  0  0  0  0  0  0  0  0  0
    2.5862   -2.9915   -0.0000 C   0  0  0  0  0  0  0  0  0  0  0  0
    3.8972   -0.7270   -0.0000 C   0  0  0  0  0  0  0  0  0  0  0  0
    3.8734   -3.7304   -0.0000 C   0  0  0  0  0  0  0  0  0  0  0  0
    5.1844   -1.4659   -0.0000 C   0  0  0  0  0  0  0  0  0  0  0  0
    5.1725   -2.9676   -0.0000 C   0  0  0  0  0  0  0  0  0  0  0  0
    6.4596   -3.7066   -0.0000 C   0  0  0  0  0  0  0  0  0  0  0  0
    6.4477   -5.1963   -0.0000 N   0  0  0  0  0  0  0  0  0  0  0  0
    7.7468   -2.9438   -0.0000 C   0  0  0  0  0  0  0  0  0  0  0  0
    7.7349   -5.9352   -0.0000 C   0  0  0  0  0  0  0  0  0  0  0  0
    5.1367   -5.9352   -0.0000 C   0  0  0  0  0  0  0  0  0  0  0  0
    7.7349   -1.4183   -0.0000 O   0  0  0  0  0  0  0  0  0  0  0  0
    9.0340   -3.6827   -0.0000 N   0  0  0  0  0  0  0  0  0  0  0  0
    7.7230   -7.4250   -0.0000 C   0  0  0  0  0  0  0  0  0  0  0  0
    5.1248   -7.4250   -0.0000 C   0  0  0  0  0  0  0  0  0  0  0  0
   10.3211   -2.9200   -0.0000 C   0  0  0  0  0  0  0  0  0  0  0  0
    6.4120   -8.1639   -0.0000 N   0  0  0  0  0  0  0  0  0  0  0  0
   10.3092   -1.3944   -0.0000 C   0  0  0  0  0  0  0  0  0  0  0  0
    6.4001   -9.6537   -0.0000 C   0  0  0  0  0  0  0  0  0  0  0  0
   11.6083   -0.6317   -0.0000 C   0  0  0  0  0  0  0  0  0  0  0  0
    8.9982   -0.6317   -0.0000 C   0  0  0  0  0  0  0  0  0  0  0  0
    7.6872  -10.3926   -0.0000 C   0  0  0  0  0  0  0  0  0  0  0  0
   11.5964    0.8819   -0.0000 C   0  0  0  0  0  0  0  0  0  0  0  0
    8.9863    0.8819   -0.0000 C   0  0  0  0  0  0  0  0  0  0  0  0
    8.9744   -9.6299   -0.0000 O   0  0  0  0  0  0  0  0  0  0  0  0
    7.6753  -11.8943   -0.0000 C   0  0  0  0  0  0  0  0  0  0  0  0
   10.2735    1.6447   -0.0000 C   0  0  0  0  0  0  0  0  0  0  0  0
    8.9625  -12.6213   -0.0000 O   0  0  0  0  0  0  0  0  0  0  0  0
   10.2615    3.1583   -0.0000 O   0  0  0  0  0  0  0  0  0  0  0  0
    8.9505  -14.1230   -0.0000 C   0  0  0  0  0  0  0  0  0  0  0  0
   11.5487    3.9092   -0.0000 C   0  0  0  0  0  0  0  0  0  0  0  0
    7.6395  -14.8620   -0.0000 C   0  0  0  0  0  0  0  0  0  0  0  0
   10.2377  -14.8620   -0.0000 C   0  0  0  0  0  0  0  0  0  0  0  0
    7.6276  -16.3517   -0.0000 C   0  0  0  0  0  0  0  0  0  0  0  0
    6.3166  -14.0873   -0.0000 C   0  0  0  0  0  0  0  0  0  0  0  0
   10.2258  -16.3517   -0.0000 C   0  0  0  0  0  0  0  0  0  0  0  0
   11.5368  -14.0873   -0.0000 C   0  0  0  0  0  0  0  0  0  0  0  0
    8.9148  -17.0907   -0.0000 C   0  0  0  0  0  0  0  0  0  0  0  0
  1  2  1  0  0  0  0
  2  3  1  0  0  0  0
  2  4  1  0  0  0  0
  2  5  1  0  0  0  0
  5  6  2  0  0  0  0
  5  7  1  0  0  0  0
  6  8  1  0  0  0  0
  7  9  2  0  0  0  0
  8 10  2  0  0  0  0
 10 11  1  0  0  0  0
 11 12  1  0  0  0  0
 11 13  1  0  0  0  0
 12 14  1  0  0  0  0
 12 15  1  0  0  0  0
 13 16  2  0  0  0  0
 13 17  1  0  0  0  0
 14 18  1  0  0  0  0
 15 19  1  0  0  0  0
 17 20  1  0  0  0  0
 18 21  1  0  0  0  0
 20 22  1  0  0  0  0
 21 23  1  0  0  0  0
 22 24  2  0  0  0  0
 22 25  1  0  0  0  0
 23 26  1  0  0  0  0
 24 27  1  0  0  0  0
 25 28  2  0  0  0  0
 26 29  1  0  0  0  0
 26 30  1  0  0  0  0
 27 31  2  0  0  0  0
 30 32  1  0  0  0  0
 31 33  1  0  0  0  0
 32 34  1  0  0  0  0
 33 35  1  0  0  0  0
 34 36  2  0  0  0  0
 34 37  1  0  0  0  0
 36 38  1  0  0  0  0
 36 39  1  0  0  0  0
 37 40  2  0  0  0  0
 37 41  1  0  0  0  0
 38 42  2  0  0  0  0
  9 10  1  0  0  0  0
 19 21  1  0  0  0  0
 28 31  1  0  0  0  0
 40 42  1  0  0  0  0
M  END
>  <MolRegNo>
97847

>  <m>
=

>  <Value>
2000

>  <Unit>
nM

>  <Type>
Ki

>  <pValue>
5.7

>  <Ligand Efficiency>
0

>  <Binding Efficiency>
0

>  <Surface Efficiency>
0

>  <Assay Index>
51650

>  <Assay Category>


>  <Assay Organism>


>  <Target ID>
11365

>  <Target Name>
Cytochrome P450 2D6

>  <Target Organism>
Homo sapiens

>  <Target Description>
Target is a single protein chain

>  <Sequence Accession>
P10635

>  <Reference>
Bioorg Med Chem Lett 14 (9), 2025-2030 (2004)

>  <Pubmed ID>
15080972

>  <DOI>
10.1016/j.bmcl.2004.02.078

$$$$
96974
Actelion Java MolfileCreator 1.0

 42 45  0  0  0  0  0  0  0  0999 V2000
    0.0000   -0.0000   -0.0000 F   0  0  0  0  0  0  0  0  0  0  0  0
    1.3006   -0.7517   -0.0000 C   0  0  0  0  0  0  0  0  0  0  0  0
    2.0403    0.5727   -0.0000 F   0  0  0  0  0  0  0  0  0  0  0  0
    0.5250   -2.0523   -0.0000 F   0  0  0  0  0  0  0  0  0  0  0  0
    2.6011   -1.4915   -0.0000 C   0  0  0  0  0  0  0  0  0  0  0  0
    2.5892   -2.9949   -0.0000 C   0  0  0  0  0  0  0  0  0  0  0  0
    3.9017   -0.7278   -0.0000 C   0  0  0  0  0  0  0  0  0  0  0  0
    3.8779   -3.7347   -0.0000 C   0  0  0  0  0  0  0  0  0  0  0  0
    5.1904   -1.4676   -0.0000 C   0  0  0  0  0  0  0  0  0  0  0  0
    5.1784   -2.9710   -0.0000 C   0  0  0  0  0  0  0  0  0  0  0  0
    6.4671   -3.7108   -0.0000 C   0  0  0  0  0  0  0  0  0  0  0  0
    6.4551   -5.2023   -0.0000 N   0  0  0  0  0  0  0  0  0  0  0  0
    7.7557   -2.9472   -0.0000 C   0  0  0  0  0  0  0  0  0  0  0  0
    7.7438   -5.9421   -0.0000 C   0  0  0  0  0  0  0  0  0  0  0  0
    5.1426   -5.9421   -0.0000 C   0  0  0  0  0  0  0  0  0  0  0  0
    7.7438   -1.4199   -0.0000 O   0  0  0  0  0  0  0  0  0  0  0  0
    9.0444   -3.6869   -0.0000 N   0  0  0  0  0  0  0  0  0  0  0  0
    7.7319   -7.4336   -0.0000 C   0  0  0  0  0  0  0  0  0  0  0  0
    5.1307   -7.4336   -0.0000 C   0  0  0  0  0  0  0  0  0  0  0  0
   10.3330   -2.9233   -0.0000 C   0  0  0  0  0  0  0  0  0  0  0  0
    6.4193   -8.1733   -0.0000 N   0  0  0  0  0  0  0  0  0  0  0  0
   10.3211   -1.3960   -0.0000 C   0  0  0  0  0  0  0  0  0  0  0  0
    6.4074   -9.6648   -0.0000 C   0  0  0  0  0  0  0  0  0  0  0  0
   11.6216   -0.6324   -0.0000 C   0  0  0  0  0  0  0  0  0  0  0  0
    9.0086   -0.6324   -0.0000 C   0  0  0  0  0  0  0  0  0  0  0  0
    7.6961  -10.4046   -0.0000 C   0  0  0  0  0  0  0  0  0  0  0  0
   11.6097    0.8830   -0.0000 C   0  0  0  0  0  0  0  0  0  0  0  0
    8.9966    0.8830   -0.0000 C   0  0  0  0  0  0  0  0  0  0  0  0
    8.9847   -9.6410   -0.0000 O   0  0  0  0  0  0  0  0  0  0  0  0
    7.6841  -11.9080   -0.0000 C   0  0  0  0  0  0  0  0  0  0  0  0
   10.2853    1.6466   -0.0000 C   0  0  0  0  0  0  0  0  0  0  0  0
    8.9728  -12.6359   -0.0000 O   0  0  0  0  0  0  0  0  0  0  0  0
   10.2733    3.1619   -0.0000 O   0  0  0  0  0  0  0  0  0  0  0  0
    8.9608  -14.1393   -0.0000 C   0  0  0  0  0  0  0  0  0  0  0  0
   11.5620    3.9137   -0.0000 C   0  0  0  0  0  0  0  0  0  0  0  0
    7.6483  -14.8790   -0.0000 C   0  0  0  0  0  0  0  0  0  0  0  0
   10.2495  -14.8790   -0.0000 C   0  0  0  0  0  0  0  0  0  0  0  0
    7.6364  -16.3705   -0.0000 C   0  0  0  0  0  0  0  0  0  0  0  0
   10.2375  -16.3705   -0.0000 C   0  0  0  0  0  0  0  0  0  0  0  0
    8.9250  -17.1103   -0.0000 C   0  0  0  0  0  0  0  0  0  0  0  0
    8.9250  -18.6018   -0.0000 O   0  0  0  0  0  0  0  0  0  0  0  0
   10.2137  -19.3296   -0.0000 C   0  0  0  0  0  0  0  0  0  0  0  0
  1  2  1  0  0  0  0
  2  3  1  0  0  0  0
  2  4  1  0  0  0  0
  2  5  1  0  0  0  0
  5  6  2  0  0  0  0
  5  7  1  0  0  0  0
  6  8  1  0  0  0  0
  7  9  2  0  0  0  0
  8 10  2  0  0  0  0
 10 11  1  0  0  0  0
 11 12  1  0  0  0  0
 11 13  1  0  0  0  0
 12 14  1  0  0  0  0
 12 15  1  0  0  0  0
 13 16  2  0  0  0  0
 13 17  1  0  0  0  0
 14 18  1  0  0  0  0
 15 19  1  0  0  0  0
 17 20  1  0  0  0  0
 18 21  1  0  0  0  0
 20 22  1  0  0  0  0
 21 23  1  0  0  0  0
 22 24  2  0  0  0  0
 22 25  1  0  0  0  0
 23 26  1  0  0  0  0
 24 27  1  0  0  0  0
 25 28  2  0  0  0  0
 26 29  1  0  0  0  0
 26 30  1  0  0  0  0
 27 31  2  0  0  0  0
 30 32  1  0  0  0  0
 31 33  1  0  0  0  0
 32 34  1  0  0  0  0
 33 35  1  0  0  0  0
 34 36  2  0  0  0  0
 34 37  1  0  0  0  0
 36 38  1  0  0  0  0
 37 39  2  0  0  0  0
 38 40  2  0  0  0  0
 40 41  1  0  0  0  0
 41 42  1  0  0  0  0
  9 10  1  0  0  0  0
 19 21  1  0  0  0  0
 28 31  1  0  0  0  0
 39 40  1  0  0  0  0
M  END
>  <MolRegNo>
96974

>  <m>
=

>  <Value>
4000

>  <Unit>
nM

>  <Type>
Ki

>  <pValue>
5.4

>  <Ligand Efficiency>
0

>  <Binding Efficiency>
0

>  <Surface Efficiency>
0

>  <Assay Index>
51650

>  <Assay Category>


>  <Assay Organism>


>  <Target ID>
11365

>  <Target Name>
Cytochrome P450 2D6

>  <Target Organism>
Homo sapiens

>  <Target Description>
Target is a single protein chain

>  <Sequence Accession>
P10635

>  <Reference>
Bioorg Med Chem Lett 14 (9), 2025-2030 (2004)

>  <Pubmed ID>
15080972

>  <DOI>
10.1016/j.bmcl.2004.02.078

$$$$
97976
Actelion Java MolfileCreator 1.0

 39 42  0  0  0  0  0  0  0  0999 V2000
    0.0000   -0.0000   -0.0000 F   0  0  0  0  0  0  0  0  0  0  0  0
    1.3085   -0.7563   -0.0000 C   0  0  0  0  0  0  0  0  0  0  0  0
    2.6050    0.0120   -0.0000 C   0  0  0  0  0  0  0  0  0  0  0  0
    1.2965   -2.2569   -0.0000 C   0  0  0  0  0  0  0  0  0  0  0  0
    3.8896   -0.7323   -0.0000 C   0  0  0  0  0  0  0  0  0  0  0  0
    2.5930   -3.0012   -0.0000 C   0  0  0  0  0  0  0  0  0  0  0  0
    3.8776   -2.2329   -0.0000 C   0  0  0  0  0  0  0  0  0  0  0  0
    5.1741   -2.9772   -0.0000 C   0  0  0  0  0  0  0  0  0  0  0  0
    5.1621   -4.4658   -0.0000 N   0  0  0  0  0  0  0  0  0  0  0  0
    6.4586   -2.2089   -0.0000 C   0  0  0  0  0  0  0  0  0  0  0  0
    3.8535   -5.2101   -0.0000 C   0  0  0  0  0  0  0  0  0  0  0  0
    6.4586   -5.2101   -0.0000 C   0  0  0  0  0  0  0  0  0  0  0  0
    6.4466   -0.6843   -0.0000 O   0  0  0  0  0  0  0  0  0  0  0  0
    7.7551   -2.9532   -0.0000 N   0  0  0  0  0  0  0  0  0  0  0  0
    3.8415   -6.6987   -0.0000 C   0  0  0  0  0  0  0  0  0  0  0  0
    6.4466   -6.6987   -0.0000 C   0  0  0  0  0  0  0  0  0  0  0  0
    9.0396   -2.1849   -0.0000 C   0  0  0  0  0  0  0  0  0  0  0  0
    5.1261   -7.4430   -0.0000 N   0  0  0  0  0  0  0  0  0  0  0  0
    9.0276   -0.6603   -0.0000 C   0  0  0  0  0  0  0  0  0  0  0  0
    5.1141   -8.9316   -0.0000 C   0  0  0  0  0  0  0  0  0  0  0  0
    7.7191    0.1080   -0.0000 C   0  0  0  0  0  0  0  0  0  0  0  0
   10.3121    0.1080   -0.0000 C   0  0  0  0  0  0  0  0  0  0  0  0
    6.3986   -9.6759   -0.0000 C   0  0  0  0  0  0  0  0  0  0  0  0
    7.7071    1.6327   -0.0000 C   0  0  0  0  0  0  0  0  0  0  0  0
   10.3001    1.6327   -0.0000 C   0  0  0  0  0  0  0  0  0  0  0  0
    7.6831   -8.9076   -0.0000 O   0  0  0  0  0  0  0  0  0  0  0  0
    6.3866  -11.1885   -0.0000 C   0  0  0  0  0  0  0  0  0  0  0  0
    8.9916    2.4010   -0.0000 C   0  0  0  0  0  0  0  0  0  0  0  0
    7.6711  -11.9208   -0.0000 O   0  0  0  0  0  0  0  0  0  0  0  0
    8.9796    3.9136   -0.0000 O   0  0  0  0  0  0  0  0  0  0  0  0
    7.6591  -13.4214   -0.0000 C   0  0  0  0  0  0  0  0  0  0  0  0
   10.2641    4.6699   -0.0000 C   0  0  0  0  0  0  0  0  0  0  0  0
    6.3385  -14.1657   -0.0000 C   0  0  0  0  0  0  0  0  0  0  0  0
    8.9436  -14.1657   -0.0000 C   0  0  0  0  0  0  0  0  0  0  0  0
    6.3265  -15.6543   -0.0000 C   0  0  0  0  0  0  0  0  0  0  0  0
    8.9316  -15.6543   -0.0000 C   0  0  0  0  0  0  0  0  0  0  0  0
    7.6231  -16.3986   -0.0000 C   0  0  0  0  0  0  0  0  0  0  0  0
    7.6231  -17.8872   -0.0000 O   0  0  0  0  0  0  0  0  0  0  0  0
    8.9196  -18.6315   -0.0000 C   0  0  0  0  0  0  0  0  0  0  0  0
  1  2  1  0  0  0  0
  2  3  2  0  0  0  0
  2  4  1  0  0  0  0
  3  5  1  0  0  0  0
  4  6  2  0  0  0  0
  5  7  2  0  0  0  0
  7  8  1  0  0  0  0
  8  9  1  0  0  0  0
  8 10  1  0  0  0  0
  9 11  1  0  0  0  0
  9 12  1  0  0  0  0
 10 13  2  0  0  0  0
 10 14  1  0  0  0  0
 11 15  1  0  0  0  0
 12 16  1  0  0  0  0
 14 17  1  0  0  0  0
 15 18  1  0  0  0  0
 17 19  1  0  0  0  0
 18 20  1  0  0  0  0
 19 21  2  0  0  0  0
 19 22  1  0  0  0  0
 20 23  1  0  0  0  0
 21 24  1  0  0  0  0
 22 25  2  0  0  0  0
 23 26  1  0  0  0  0
 23 27  1  0  0  0  0
 24 28  2  0  0  0  0
 27 29  1  0  0  0  0
 28 30  1  0  0  0  0
 29 31  1  0  0  0  0
 30 32  1  0  0  0  0
 31 33  2  0  0  0  0
 31 34  1  0  0  0  0
 33 35  1  0  0  0  0
 34 36  2  0  0  0  0
 35 37  2  0  0  0  0
 37 38  1  0  0  0  0
 38 39  1  0  0  0  0
  6  7  1  0  0  0  0
 16 18  1  0  0  0  0
 25 28  1  0  0  0  0
 36 37  1  0  0  0  0
M  END
>  <MolRegNo>
97976

>  <m>
=

>  <Value>
7000

>  <Unit>
nM

>  <Type>
Ki

>  <pValue>
5.16

>  <Ligand Efficiency>
0

>  <Binding Efficiency>
0

>  <Surface Efficiency>
0

>  <Assay Index>
51650

>  <Assay Category>


>  <Assay Organism>


>  <Target ID>
11365

>  <Target Name>
Cytochrome P450 2D6

>  <Target Organism>
Homo sapiens

>  <Target Description>
Target is a single protein chain

>  <Sequence Accession>
P10635

>  <Reference>
Bioorg Med Chem Lett 14 (9), 2025-2030 (2004)

>  <Pubmed ID>
15080972

>  <DOI>
10.1016/j.bmcl.2004.02.078

$$$$
57436
Actelion Java MolfileCreator 1.0

 16 17  0  0  0  0  0  0  0  0999 V2000
    0.0000   -0.0000   -0.0000 O   0  0  0  0  0  0  0  0  0  0  0  0
   -1.4488    0.0131   -0.0000 C   0  0  0  0  0  0  0  0  0  0  0  0
   -2.3102    1.3052   -0.0000 N   0  0  0  0  0  0  0  0  0  0  0  0
   -2.3102   -1.1877   -0.0000 C   0  0  0  0  0  0  0  0  0  0  0  0
   -3.9808    1.3182   -0.0000 C   0  0  0  0  0  0  0  0  0  0  0  0
   -2.3102   -2.4538   -0.0000 C   0  0  0  0  0  0  0  0  0  0  0  0
   -3.9286   -1.1747   -0.0000 C   0  0  0  0  0  0  0  0  0  0  0  0
   -0.7962   -1.7881   -0.0000 C   0  0  0  0  0  0  0  0  0  0  0  0
   -4.6987    2.3102   -0.0000 O   0  0  0  0  0  0  0  0  0  0  0  0
   -4.7509    0.1697   -0.0000 C   0  0  0  0  0  0  0  0  0  0  0  0
   -3.6806   -3.2499   -0.0000 C   0  0  0  0  0  0  0  0  0  0  0  0
   -1.0050   -3.1455   -0.0000 C   0  0  0  0  0  0  0  0  0  0  0  0
    0.5351   -1.2530   -0.0000 C   0  0  0  0  0  0  0  0  0  0  0  0
   -3.6806   -4.7509   -0.0000 C   0  0  0  0  0  0  0  0  0  0  0  0
   -1.0181   -4.7248   -0.0000 C   0  0  0  0  0  0  0  0  0  0  0  0
   -2.3494   -5.5079   -0.0000 N   0  0  0  0  0  0  0  0  0  0  0  0
  1  2  2  0  0  0  0
  2  3  1  0  0  0  0
  2  4  1  0  0  0  0
  3  5  1  0  0  0  0
  4  6  1  0  0  0  0
  4  7  1  0  0  0  0
  4  8  1  0  0  0  0
  5  9  2  0  0  0  0
  5 10  1  0  0  0  0
  6 11  2  0  0  0  0
  6 12  1  0  0  0  0
  8 13  1  0  0  0  0
 11 14  1  0  0  0  0
 12 15  2  0  0  0  0
 14 16  2  0  0  0  0
  7 10  1  0  0  0  0
 15 16  1  0  0  0  0
M  END
>  <MolRegNo>
57436

>  <m>
=

>  <Value>
1100

>  <Unit>
nM

>  <Type>
Ki

>  <pValue>
5.96

>  <Ligand Efficiency>
0.51

>  <Binding Efficiency>
27.3

>  <Surface Efficiency>
10.09

>  <Assay Index>
51105

>  <Assay Category>


>  <Assay Organism>
Homo sapiens

>  <Target ID>
65

>  <Target Name>
Cytochrome P450 19A1

>  <Target Organism>
Homo sapiens

>  <Target Description>
Target is a single protein chain

>  <Sequence Accession>
P11511

>  <Reference>
J Med Chem 28 (2), 200-204 (1985)

>  <Pubmed ID>
3968684

>  <DOI>
10.1021/jm00380a009

$$$$
1798159
Actelion Java MolfileCreator 1.0

 29 33  0  0  1  0  0  0  0  0999 V2000
    0.0000   -0.0000   -0.0000 S   0  0  0  0  0  0  0  0  0  0  0  0
   -0.0118   -1.4847   -0.0000 C   0  0  0  0  0  0  0  0  0  0  0  0
   -1.3080    0.7659   -0.0000 C   0  0  0  0  0  0  0  0  0  0  0  0
   -1.3315   -2.2153   -0.0000 C   0  0  0  0  0  0  0  0  0  0  0  0
    1.2726   -2.2153   -0.0000 C   0  0  0  0  0  0  0  0  0  0  0  0
   -1.3197    2.2742   -0.0000 C   0  0  0  0  0  0  0  0  0  0  0  0
   -2.6277    0.0236   -0.0000 C   0  0  0  0  0  0  0  0  0  0  0  0
   -1.3433   -3.7000   -0.0000 C   0  0  0  0  0  0  0  0  0  0  0  0
    1.2608   -3.6882   -0.0000 C   0  0  0  0  0  0  0  0  0  0  0  0
   -2.6395    3.0284   -0.0000 C   0  0  0  0  0  0  0  0  0  0  0  0
   -0.0354    3.0519   -0.0000 C   0  0  0  0  0  0  0  0  0  0  0  0
   -3.9357    0.7895   -0.0000 C   0  0  0  0  0  0  0  0  0  0  0  0
   -0.0471   -4.4424   -0.0000 C   0  0  0  0  0  0  0  0  0  0  0  0
   -3.9475    2.2860   -0.0000 C   0  0  0  0  0  0  0  0  0  0  0  0
   -2.6513    4.5366   -0.0000 C   0  0  0  0  0  0  0  0  0  0  0  0
   -0.0471    4.5484   -0.0000 C   0  0  0  0  0  0  0  0  0  0  0  0
    1.3669    2.5924   -0.0000 C   0  0  0  0  0  0  0  0  0  0  0  0
   -5.2436    0.0471   -0.0000 C   0  0  0  0  0  0  0  0  0  0  0  0
   -0.0589   -5.9271   -0.0000 N   0  0  0  0  0  0  0  0  0  0  0  0
   -5.2554    3.0401   -0.0000 C   0  0  0  0  0  0  0  0  0  0  0  0
   -3.9592    3.7943   -0.0000 C   0  0  0  0  0  0  0  0  0  0  0  0
   -1.3551    5.2908   -0.0000 C   0  0  0  0  0  0  0  0  0  0  0  0
    1.3551    5.0315   -0.0000 C   0  0  0  0  0  0  0  0  0  0  0  0
   -0.0707    6.0567   -0.0000 C   0  0  0  0  0  0  0  0  0  0  0  0
    2.2271    3.8178   -0.0000 C   0  0  0  0  0  0  0  0  0  0  0  0
   -6.5516    0.8131   -0.0000 C   0  0  0  0  0  0  0  0  0  0  0  0
   -6.5634    2.2978   -0.0000 C   0  0  0  0  0  0  0  0  0  0  0  0
    1.8147    6.4691   -0.0000 O   0  0  0  0  0  0  0  0  0  0  0  0
   -7.8596    0.0707   -0.0000 O   0  0  0  0  0  0  0  0  0  0  0  0
  1  2  1  0  0  0  0
  3  1  1  6  0  0  0
  2  4  2  0  0  0  0
  2  5  1  0  0  0  0
  6  3  1  6  0  0  0
  3  7  1  0  0  0  0
  4  8  1  0  0  0  0
  5  9  2  0  0  0  0
  6 10  1  0  0  0  0
  6 11  1  0  0  0  0
  7 12  1  0  0  0  0
  8 13  2  0  0  0  0
 10 14  1  0  0  0  0
 10 15  1  1  0  0  0
 11 16  1  0  0  0  0
 11 17  1  1  0  0  0
 12 18  2  0  0  0  0
 13 19  1  0  0  0  0
 14 20  1  0  0  0  0
 14 21  1  1  0  0  0
 15 22  1  0  0  0  0
 16 23  1  0  0  0  0
 16 24  1  1  0  0  0
 17 25  1  0  0  0  0
 18 26  1  0  0  0  0
 20 27  2  0  0  0  0
 23 28  2  0  0  0  0
 26 29  2  0  0  0  0
  9 13  1  0  0  0  0
 12 14  1  0  0  0  0
 16 22  1  0  0  0  0
 23 25  1  0  0  0  0
 26 27  1  0  0  0  0
M  END
>  <MolRegNo>
1798159

>  <m>
=

>  <Value>
10

>  <Unit>
nM

>  <Type>
Ki

>  <pValue>
8

>  <Ligand Efficiency>
0.38

>  <Binding Efficiency>
19.63

>  <Surface Efficiency>
13.3

>  <Assay Index>
36121

>  <Assay Category>


>  <Assay Organism>


>  <Target ID>
65

>  <Target Name>
Cytochrome P450 19A1

>  <Target Organism>
Homo sapiens

>  <Target Description>
Target is a single protein chain

>  <Sequence Accession>
P11511

>  <Reference>
Bioorg Med Chem Lett 5 (21), 2513-2516 (1995)

>  <Pubmed ID>


>  <DOI>
10.1016/0960-894X(95)00440-5

$$$$
1377531
Actelion Java MolfileCreator 1.0

 23 26  0  0  1  0  0  0  0  0999 V2000
    0.0000   -0.0000   -0.0000 O   0  0  0  0  0  0  0  0  0  0  0  0
    1.2714    0.8313   -0.0000 C   0  0  0  0  0  0  0  0  0  0  0  0
    2.5550    0.0611   -0.0000 C   0  0  0  0  0  0  0  0  0  0  0  0
    1.2592    2.3716   -0.0000 C   0  0  0  0  0  0  0  0  0  0  0  0
    3.8020    0.8802   -0.0000 C   0  0  0  0  0  0  0  0  0  0  0  0
    2.5428    3.1663   -0.0000 C   0  0  0  0  0  0  0  0  0  0  0  0
    3.8020    2.3961   -0.0000 C   0  0  0  0  0  0  0  0  0  0  0  0
    5.1100    0.1345   -0.0000 C   0  0  0  0  0  0  0  0  0  0  0  0
    5.0856    3.1907   -0.0000 C   0  0  0  0  0  0  0  0  0  0  0  0
    3.7897    3.9242   -0.0000 C   0  0  0  0  0  0  0  0  0  0  0  0
    6.4303    0.8802   -0.0000 C   0  0  0  0  0  0  0  0  0  0  0  0
    6.4059    2.4205   -0.0000 C   0  0  0  0  0  0  0  0  0  0  0  0
    5.0733    4.6821   -0.0000 C   0  0  0  0  0  0  0  0  0  0  0  0
    2.7262    4.4988   -0.0000 C   0  0  0  0  0  0  0  0  0  0  0  0
    7.6773    3.2152   -0.0000 C   0  0  0  0  0  0  0  0  0  0  0  0
    6.3936    5.4768   -0.0000 C   0  0  0  0  0  0  0  0  0  0  0  0
    1.3325    5.2445   -0.0000 C   0  0  0  0  0  0  0  0  0  0  0  0
    7.6528    4.7799   -0.0000 C   0  0  0  0  0  0  0  0  0  0  0  0
    9.0953    2.7751   -0.0000 C   0  0  0  0  0  0  0  0  0  0  0  0
    9.0464    5.2200   -0.0000 C   0  0  0  0  0  0  0  0  0  0  0  0
    7.6161    6.2469   -0.0000 C   0  0  0  0  0  0  0  0  0  0  0  0
    9.9633    3.9731   -0.0000 C   0  0  0  0  0  0  0  0  0  0  0  0
    9.4865    6.7115   -0.0000 O   0  0  0  0  0  0  0  0  0  0  0  0
  1  2  2  0  0  0  0
  2  3  1  0  0  0  0
  2  4  1  0  0  0  0
  3  5  2  0  0  0  0
  4  6  1  0  0  0  0
  5  7  1  0  0  0  0
  5  8  1  0  0  0  0
  7  9  1  0  0  0  0
  7 10  1  1  0  0  0
  8 11  1  0  0  0  0
  9 12  1  0  0  0  0
  9 13  1  1  0  0  0
 10 14  1  0  0  0  0
 12 15  1  0  0  0  0
 13 16  1  0  0  0  0
 14 17  3  0  0  0  0
 15 18  1  0  0  0  0
 15 19  1  1  0  0  0
 18 20  1  0  0  0  0
 18 21  1  1  0  0  0
 19 22  1  0  0  0  0
 20 23  2  0  0  0  0
  6  7  1  0  0  0  0
 12 11  1  6  0  0  0
 16 18  1  0  0  0  0
 20 22  1  0  0  0  0
M  END
>  <MolRegNo>
1377531

>  <m>
=

>  <Value>
4

>  <Unit>
nM

>  <Type>
Ki

>  <pValue>
8.4

>  <Ligand Efficiency>
0.5

>  <Binding Efficiency>
27.05

>  <Surface Efficiency>
24.6

>  <Assay Index>
50931

>  <Assay Category>


>  <Assay Organism>
Homo sapiens

>  <Target ID>
65

>  <Target Name>
Cytochrome P450 19A1

>  <Target Organism>
Homo sapiens

>  <Target Description>
Target is a single protein chain

>  <Sequence Accession>
P11511

>  <Reference>
J Med Chem 32 (10), 2231-2239 (1989)

>  <Pubmed ID>
2677377

>  <DOI>
10.1021/jm00130a001

$$$$
74407
Actelion Java MolfileCreator 1.0

 24 27  0  0  1  0  0  0  0  0999 V2000
    0.0000   -0.0000   -0.0000 Br  0  0  0  0  0  0  0  0  0  0  0  0
    0.3993   -1.4473   -0.0000 C   0  0  0  0  0  0  0  0  0  0  0  0
    1.6719   -2.1834   -0.0000 C   0  0  0  0  0  0  0  0  0  0  0  0
    1.7842   -0.5864   -0.0000 O   0  0  0  0  0  0  0  0  0  0  0  0
    1.6968   -3.6681   -0.0000 C   0  0  0  0  0  0  0  0  0  0  0  0
    1.6469   -5.1529   -0.0000 C   0  0  0  0  0  0  0  0  0  0  0  0
    2.9694   -2.9071   -0.0000 C   0  0  0  0  0  0  0  0  0  0  0  0
    0.3868   -2.9071   -0.0000 C   0  0  0  0  0  0  0  0  0  0  0  0
    0.3743   -5.8640   -0.0000 C   0  0  0  0  0  0  0  0  0  0  0  0
    2.9445   -5.8890   -0.0000 C   0  0  0  0  0  0  0  0  0  0  0  0
    4.2670   -3.6557   -0.0000 C   0  0  0  0  0  0  0  0  0  0  0  0
    2.9570   -1.3974   -0.0000 C   0  0  0  0  0  0  0  0  0  0  0  0
   -0.9233   -3.6432   -0.0000 C   0  0  0  0  0  0  0  0  0  0  0  0
   -0.9357   -5.1029   -0.0000 C   0  0  0  0  0  0  0  0  0  0  0  0
    4.2296   -5.1404   -0.0000 C   0  0  0  0  0  0  0  0  0  0  0  0
    5.5521   -2.8946   -0.0000 C   0  0  0  0  0  0  0  0  0  0  0  0
    4.2545   -0.6363   -0.0000 C   0  0  0  0  0  0  0  0  0  0  0  0
   -2.2458   -5.8391   -0.0000 O   0  0  0  0  0  0  0  0  0  0  0  0
    5.5521   -1.3724   -0.0000 C   0  0  0  0  0  0  0  0  0  0  0  0
    6.9620   -3.3562   -0.0000 C   0  0  0  0  0  0  0  0  0  0  0  0
    6.9744   -0.8983   -0.0000 C   0  0  0  0  0  0  0  0  0  0  0  0
    5.5272    0.1372   -0.0000 C   0  0  0  0  0  0  0  0  0  0  0  0
    7.8603   -2.1210   -0.0000 C   0  0  0  0  0  0  0  0  0  0  0  0
    7.4361    0.5365   -0.0000 O   0  0  0  0  0  0  0  0  0  0  0  0
  1  2  1  0  0  0  0
  2  3  1  0  0  0  0
  3  4  1  0  0  0  0
  5  3  1  1  0  0  0
  5  6  1  0  0  0  0
  5  7  1  0  0  0  0
  5  8  1  0  0  0  0
  6  9  2  0  0  0  0
  6 10  1  0  0  0  0
  7 11  1  0  0  0  0
  7 12  1  0  0  0  0
  8 13  1  0  0  0  0
  9 14  1  0  0  0  0
 10 15  1  0  0  0  0
 11 16  1  0  0  0  0
 12 17  1  0  0  0  0
 14 18  2  0  0  0  0
 16 19  1  0  0  0  0
 16 20  1  0  0  0  0
 19 21  1  0  0  0  0
 19 22  1  1  0  0  0
 20 23  1  0  0  0  0
 21 24  2  0  0  0  0
 11 15  1  0  0  0  0
 13 14  1  0  0  0  0
 17 19  1  0  0  0  0
 21 23  1  0  0  0  0
M  END
>  <MolRegNo>
74407

>  <m>
=

>  <Value>
1130

>  <Unit>
nM

>  <Type>
Ki

>  <pValue>
5.95

>  <Ligand Efficiency>
0.34

>  <Binding Efficiency>
15.04

>  <Surface Efficiency>
10.94

>  <Assay Index>
50926

>  <Assay Category>


>  <Assay Organism>
Homo sapiens

>  <Target ID>
65

>  <Target Name>
Cytochrome P450 19A1

>  <Target Organism>
Homo sapiens

>  <Target Description>
Target is a single protein chain

>  <Sequence Accession>
P11511

>  <Reference>
J Med Chem 34 (5), 1748-1750 (1991)

>  <Pubmed ID>
2033599

>  <DOI>
10.1021/jm00109a033

$$$$
453121
Actelion Java MolfileCreator 1.0

 22 25  0  0  1  0  0  0  0  0999 V2000
    0.0000   -0.0000   -0.0000 O   0  0  0  0  0  0  0  0  0  0  0  0
    1.3112    0.7987   -0.0000 C   0  0  0  0  0  0  0  0  0  0  0  0
    2.5629    0.0238   -0.0000 C   0  0  0  0  0  0  0  0  0  0  0  0
    1.2993    2.2649   -0.0000 C   0  0  0  0  0  0  0  0  0  0  0  0
    3.8741    0.8225   -0.0000 C   0  0  0  0  0  0  0  0  0  0  0  0
    2.5510    3.0516   -0.0000 C   0  0  0  0  0  0  0  0  0  0  0  0
    3.8622    2.2887   -0.0000 C   0  0  0  0  0  0  0  0  0  0  0  0
    5.1496    0.0477   -0.0000 C   0  0  0  0  0  0  0  0  0  0  0  0
    5.1377    3.0754   -0.0000 C   0  0  0  0  0  0  0  0  0  0  0  0
    3.7907    3.8145   -0.0000 C   0  0  0  0  0  0  0  0  0  0  0  0
    6.4012    0.7867   -0.0000 C   0  0  0  0  0  0  0  0  0  0  0  0
    6.3893    2.3125   -0.0000 C   0  0  0  0  0  0  0  0  0  0  0  0
    5.1257    4.5536   -0.0000 C   0  0  0  0  0  0  0  0  0  0  0  0
    7.7005    3.0993   -0.0000 C   0  0  0  0  0  0  0  0  0  0  0  0
    6.4370    5.3642   -0.0000 C   0  0  0  0  0  0  0  0  0  0  0  0
    7.6886    4.6132   -0.0000 C   0  0  0  0  0  0  0  0  0  0  0  0
    8.9879    2.3364   -0.0000 C   0  0  0  0  0  0  0  0  0  0  0  0
    8.9760    5.3642   -0.0000 O   0  0  0  0  0  0  0  0  0  0  0  0
    7.6648    6.1390   -0.0000 C   0  0  0  0  0  0  0  0  0  0  0  0
   10.2753    3.1231   -0.0000 C   0  0  0  0  0  0  0  0  0  0  0  0
   10.2634    4.6370   -0.0000 C   0  0  0  0  0  0  0  0  0  0  0  0
   11.5747    5.4238   -0.0000 O   0  0  0  0  0  0  0  0  0  0  0  0
  1  2  2  0  0  0  0
  2  3  1  0  0  0  0
  2  4  1  0  0  0  0
  3  5  2  0  0  0  0
  4  6  2  0  0  0  0
  5  7  1  0  0  0  0
  5  8  1  0  0  0  0
  7  9  1  0  0  0  0
  7 10  1  1  0  0  0
  8 11  1  0  0  0  0
  9 12  1  0  0  0  0
  9 13  1  1  0  0  0
 12 14  1  0  0  0  0
 13 15  1  0  0  0  0
 14 16  1  0  0  0  0
 14 17  1  1  0  0  0
 16 18  1  0  0  0  0
 16 19  1  1  0  0  0
 17 20  1  0  0  0  0
 18 21  1  0  0  0  0
 21 22  2  0  0  0  0
  6  7  1  0  0  0  0
 12 11  1  6  0  0  0
 15 16  1  0  0  0  0
 20 21  1  0  0  0  0
M  END
>  <MolRegNo>
453121

>  <m>
=

>  <Value>
35000

>  <Unit>
nM

>  <Type>
Ki

>  <pValue>
4.46

>  <Ligand Efficiency>
0.28

>  <Binding Efficiency>
14.83

>  <Surface Efficiency>
10.27

>  <Assay Index>
50931

>  <Assay Category>


>  <Assay Organism>
Homo sapiens

>  <Target ID>
65

>  <Target Name>
Cytochrome P450 19A1

>  <Target Organism>
Homo sapiens

>  <Target Description>
Target is a single protein chain

>  <Sequence Accession>
P11511

>  <Reference>
J Med Chem 32 (10), 2231-2239 (1989)

>  <Pubmed ID>
2677377

>  <DOI>
10.1021/jm00130a001

$$$$
74273
Actelion Java MolfileCreator 1.0

 24 27  0  0  1  0  0  0  0  0999 V2000
    0.0000   -0.0000   -0.0000 Cl  0  0  0  0  0  0  0  0  0  0  0  0
    0.3993   -1.4473   -0.0000 C   0  0  0  0  0  0  0  0  0  0  0  0
    1.6719   -2.1834   -0.0000 C   0  0  0  0  0  0  0  0  0  0  0  0
    1.7842   -0.5864   -0.0000 O   0  0  0  0  0  0  0  0  0  0  0  0
    1.6968   -3.6681   -0.0000 C   0  0  0  0  0  0  0  0  0  0  0  0
    1.6469   -5.1529   -0.0000 C   0  0  0  0  0  0  0  0  0  0  0  0
    2.9694   -2.9071   -0.0000 C   0  0  0  0  0  0  0  0  0  0  0  0
    0.3868   -2.9071   -0.0000 C   0  0  0  0  0  0  0  0  0  0  0  0
    0.3743   -5.8640   -0.0000 C   0  0  0  0  0  0  0  0  0  0  0  0
    2.9445   -5.8890   -0.0000 C   0  0  0  0  0  0  0  0  0  0  0  0
    4.2670   -3.6557   -0.0000 C   0  0  0  0  0  0  0  0  0  0  0  0
    2.9570   -1.3974   -0.0000 C   0  0  0  0  0  0  0  0  0  0  0  0
   -0.9233   -3.6432   -0.0000 C   0  0  0  0  0  0  0  0  0  0  0  0
   -0.9357   -5.1029   -0.0000 C   0  0  0  0  0  0  0  0  0  0  0  0
    4.2296   -5.1404   -0.0000 C   0  0  0  0  0  0  0  0  0  0  0  0
    5.5521   -2.8946   -0.0000 C   0  0  0  0  0  0  0  0  0  0  0  0
    4.2545   -0.6363   -0.0000 C   0  0  0  0  0  0  0  0  0  0  0  0
   -2.2458   -5.8391   -0.0000 O   0  0  0  0  0  0  0  0  0  0  0  0
    5.5521   -1.3724   -0.0000 C   0  0  0  0  0  0  0  0  0  0  0  0
    6.9620   -3.3562   -0.0000 C   0  0  0  0  0  0  0  0  0  0  0  0
    6.9744   -0.8983   -0.0000 C   0  0  0  0  0  0  0  0  0  0  0  0
    5.5272    0.1372   -0.0000 C   0  0  0  0  0  0  0  0  0  0  0  0
    7.8603   -2.1210   -0.0000 C   0  0  0  0  0  0  0  0  0  0  0  0
    7.4361    0.5365   -0.0000 O   0  0  0  0  0  0  0  0  0  0  0  0
  1  2  1  0  0  0  0
  2  3  1  0  0  0  0
  3  4  1  0  0  0  0
  5  3  1  1  0  0  0
  5  6  1  0  0  0  0
  5  7  1  0  0  0  0
  5  8  1  0  0  0  0
  6  9  2  0  0  0  0
  6 10  1  0  0  0  0
  7 11  1  0  0  0  0
  7 12  1  0  0  0  0
  8 13  1  0  0  0  0
  9 14  1  0  0  0  0
 10 15  1  0  0  0  0
 11 16  1  0  0  0  0
 12 17  1  0  0  0  0
 14 18  2  0  0  0  0
 16 19  1  0  0  0  0
 16 20  1  0  0  0  0
 19 21  1  0  0  0  0
 19 22  1  1  0  0  0
 20 23  1  0  0  0  0
 21 24  2  0  0  0  0
 11 15  1  0  0  0  0
 13 14  1  0  0  0  0
 17 19  1  0  0  0  0
 21 23  1  0  0  0  0
M  END
>  <MolRegNo>
74273

>  <m>
=

>  <Value>
63

>  <Unit>
nM

>  <Type>
Ki

>  <pValue>
7.2

>  <Ligand Efficiency>
0.41

>  <Binding Efficiency>
20.52

>  <Surface Efficiency>
13.24

>  <Assay Index>
50926

>  <Assay Category>


>  <Assay Organism>
Homo sapiens

>  <Target ID>
65

>  <Target Name>
Cytochrome P450 19A1

>  <Target Organism>
Homo sapiens

>  <Target Description>
Target is a single protein chain

>  <Sequence Accession>
P11511

>  <Reference>
J Med Chem 34 (5), 1748-1750 (1991)

>  <Pubmed ID>
2033599

>  <DOI>
10.1021/jm00109a033

$$$$
74274
Actelion Java MolfileCreator 1.0

 22 26  0  0  1  0  0  0  0  0999 V2000
    0.0000   -0.0000   -0.0000 O   0  0  0  0  0  0  0  0  0  0  0  0
    1.2451    0.7510   -0.0000 C   0  0  0  0  0  0  0  0  0  0  0  0
    2.4901    0.0395   -0.0000 C   0  0  0  0  0  0  0  0  0  0  0  0
    1.2253    2.2134   -0.0000 C   0  0  0  0  0  0  0  0  0  0  0  0
    3.6957    0.7708   -0.0000 C   0  0  0  0  0  0  0  0  0  0  0  0
    2.4704    2.9644   -0.0000 C   0  0  0  0  0  0  0  0  0  0  0  0
    1.1858    3.6957   -0.0000 C   0  0  0  0  0  0  0  0  0  0  0  0
    3.7154    2.2530   -0.0000 C   0  0  0  0  0  0  0  0  0  0  0  0
    4.9605    0.0593   -0.0000 C   0  0  0  0  0  0  0  0  0  0  0  0
    3.6759    3.7154   -0.0000 C   0  0  0  0  0  0  0  0  0  0  0  0
    4.9407    3.0040   -0.0000 C   0  0  0  0  0  0  0  0  0  0  0  0
    6.2055    0.8103   -0.0000 C   0  0  0  0  0  0  0  0  0  0  0  0
    6.2055    2.2727   -0.0000 C   0  0  0  0  0  0  0  0  0  0  0  0
    4.9210    4.4862   -0.0000 C   0  0  0  0  0  0  0  0  0  0  0  0
    7.4506    3.0237   -0.0000 C   0  0  0  0  0  0  0  0  0  0  0  0
    6.1858    5.2372   -0.0000 C   0  0  0  0  0  0  0  0  0  0  0  0
    7.4506    4.5257   -0.0000 C   0  0  0  0  0  0  0  0  0  0  0  0
    8.8142    2.5889   -0.0000 C   0  0  0  0  0  0  0  0  0  0  0  0
    8.8340    5.0000   -0.0000 C   0  0  0  0  0  0  0  0  0  0  0  0
    7.4111    6.0079   -0.0000 C   0  0  0  0  0  0  0  0  0  0  0  0
    9.6838    3.7945   -0.0000 C   0  0  0  0  0  0  0  0  0  0  0  0
    9.2688    6.4032   -0.0000 O   0  0  0  0  0  0  0  0  0  0  0  0
  1  2  2  0  0  0  0
  2  3  1  0  0  0  0
  2  4  1  0  0  0  0
  3  5  2  0  0  0  0
  4  6  1  0  0  0  0
  4  7  1  1  0  0  0
  5  8  1  0  0  0  0
  5  9  1  0  0  0  0
  7 10  1  0  0  0  0
  8 11  1  0  0  0  0
  9 12  1  0  0  0  0
 11 13  1  0  0  0  0
 11 14  1  0  0  0  0
 13 15  1  0  0  0  0
 14 16  1  0  0  0  0
 15 17  1  0  0  0  0
 15 18  1  0  0  0  0
 17 19  1  0  0  0  0
 17 20  1  1  0  0  0
 18 21  1  0  0  0  0
 19 22  2  0  0  0  0
  6  8  1  0  0  0  0
  8 10  1  1  0  0  0
 12 13  1  0  0  0  0
 16 17  1  0  0  0  0
 19 21  1  0  0  0  0
M  END
>  <MolRegNo>
74274

>  <m>
=

>  <Value>
70

>  <Unit>
nM

>  <Type>
Ki

>  <pValue>
7.16

>  <Ligand Efficiency>
0.44

>  <Binding Efficiency>
23.98

>  <Surface Efficiency>
20.96

>  <Assay Index>
50926

>  <Assay Category>


>  <Assay Organism>
Homo sapiens

>  <Target ID>
65

>  <Target Name>
Cytochrome P450 19A1

>  <Target Organism>
Homo sapiens

>  <Target Description>
Target is a single protein chain

>  <Sequence Accession>
P11511

>  <Reference>
J Med Chem 34 (5), 1748-1750 (1991)

>  <Pubmed ID>
2033599

>  <DOI>
10.1021/jm00109a033

$$$$
74891
Actelion Java MolfileCreator 1.0

 23 27  0  0  1  0  0  0  0  0999 V2000
    0.0000   -0.0000   -0.0000 O   0  0  0  0  0  0  0  0  0  0  0  0
    1.2461    0.7516   -0.0000 C   0  0  0  0  0  0  0  0  0  0  0  0
    2.4921    0.0396   -0.0000 C   0  0  0  0  0  0  0  0  0  0  0  0
    1.2263    2.2152   -0.0000 C   0  0  0  0  0  0  0  0  0  0  0  0
    3.6986    0.7714   -0.0000 C   0  0  0  0  0  0  0  0  0  0  0  0
    2.4724    2.9668   -0.0000 C   0  0  0  0  0  0  0  0  0  0  0  0
    1.1867    3.6986   -0.0000 C   0  0  0  0  0  0  0  0  0  0  0  0
    3.7184    2.2548   -0.0000 C   0  0  0  0  0  0  0  0  0  0  0  0
    4.9645    0.0593   -0.0000 C   0  0  0  0  0  0  0  0  0  0  0  0
    3.6789    3.7184   -0.0000 C   0  0  0  0  0  0  0  0  0  0  0  0
    4.9447    3.0064   -0.0000 C   0  0  0  0  0  0  0  0  0  0  0  0
    6.2105    0.8109   -0.0000 C   0  0  0  0  0  0  0  0  0  0  0  0
    2.6504    4.7667   -0.0000 O   0  0  0  0  0  0  0  0  0  0  0  0
    6.2105    2.2746   -0.0000 C   0  0  0  0  0  0  0  0  0  0  0  0
    4.9249    4.4898   -0.0000 C   0  0  0  0  0  0  0  0  0  0  0  0
    7.4566    3.0262   -0.0000 C   0  0  0  0  0  0  0  0  0  0  0  0
    6.1908    5.2414   -0.0000 C   0  0  0  0  0  0  0  0  0  0  0  0
    7.4566    4.5293   -0.0000 C   0  0  0  0  0  0  0  0  0  0  0  0
    8.8214    2.5910   -0.0000 C   0  0  0  0  0  0  0  0  0  0  0  0
    8.8411    5.0040   -0.0000 C   0  0  0  0  0  0  0  0  0  0  0  0
    7.4171    6.0128   -0.0000 C   0  0  0  0  0  0  0  0  0  0  0  0
    9.6916    3.7975   -0.0000 C   0  0  0  0  0  0  0  0  0  0  0  0
    9.2763    6.4083   -0.0000 O   0  0  0  0  0  0  0  0  0  0  0  0
  1  2  2  0  0  0  0
  2  3  1  0  0  0  0
  2  4  1  0  0  0  0
  3  5  2  0  0  0  0
  4  6  1  0  0  0  0
  4  7  1  1  0  0  0
  5  8  1  0  0  0  0
  5  9  1  0  0  0  0
  7 10  1  0  0  0  0
  8 11  1  0  0  0  0
  9 12  1  0  0  0  0
 10 13  1  1  0  0  0
 11 14  1  0  0  0  0
 11 15  1  0  0  0  0
 14 16  1  0  0  0  0
 15 17  1  0  0  0  0
 16 18  1  0  0  0  0
 16 19  1  0  0  0  0
 18 20  1  0  0  0  0
 18 21  1  1  0  0  0
 19 22  1  0  0  0  0
 20 23  2  0  0  0  0
  6  8  1  0  0  0  0
  8 10  1  1  0  0  0
 12 14  1  0  0  0  0
 17 18  1  0  0  0  0
 20 22  1  0  0  0  0
M  END
>  <MolRegNo>
74891

>  <m>
=

>  <Value>
870

>  <Unit>
nM

>  <Type>
Ki

>  <pValue>
6.06

>  <Ligand Efficiency>
0.36

>  <Binding Efficiency>
19.28

>  <Surface Efficiency>
11.15

>  <Assay Index>
50926

>  <Assay Category>


>  <Assay Organism>
Homo sapiens

>  <Target ID>
65

>  <Target Name>
Cytochrome P450 19A1

>  <Target Organism>
Homo sapiens

>  <Target Description>
Target is a single protein chain

>  <Sequence Accession>
P11511

>  <Reference>
J Med Chem 34 (5), 1748-1750 (1991)

>  <Pubmed ID>
2033599

>  <DOI>
10.1021/jm00109a033

$$$$
1798160
Actelion Java MolfileCreator 1.0

 29 33  0  0  1  0  0  0  0  0999 V2000
    0.0000   -0.0000   -0.0000 O   0  0  0  0  0  0  0  0  0  0  0  0
    1.2919    0.7704   -0.0000 C   0  0  0  0  0  0  0  0  0  0  0  0
    2.5837    0.0237   -0.0000 C   0  0  0  0  0  0  0  0  0  0  0  0
    1.2800    2.2874   -0.0000 C   0  0  0  0  0  0  0  0  0  0  0  0
    3.8756    0.7941   -0.0000 C   0  0  0  0  0  0  0  0  0  0  0  0
    2.5719    3.0460   -0.0000 C   0  0  0  0  0  0  0  0  0  0  0  0
    3.8638    2.3111   -0.0000 C   0  0  0  0  0  0  0  0  0  0  0  0
    5.1675    0.0474   -0.0000 C   0  0  0  0  0  0  0  0  0  0  0  0
    5.1556    3.0697   -0.0000 C   0  0  0  0  0  0  0  0  0  0  0  0
    3.8519    3.8282   -0.0000 C   0  0  0  0  0  0  0  0  0  0  0  0
    6.4712    0.8178   -0.0000 C   0  0  0  0  0  0  0  0  0  0  0  0
    6.4594    2.3349   -0.0000 C   0  0  0  0  0  0  0  0  0  0  0  0
    5.1438    4.5867   -0.0000 C   0  0  0  0  0  0  0  0  0  0  0  0
    7.7631    0.0711   -0.0000 C   0  0  0  0  0  0  0  0  0  0  0  0
    7.7512    3.1052   -0.0000 C   0  0  0  0  0  0  0  0  0  0  0  0
    6.4475    5.3453   -0.0000 C   0  0  0  0  0  0  0  0  0  0  0  0
    7.7512   -1.4222   -0.0000 C   0  0  0  0  0  0  0  0  0  0  0  0
    7.7394    4.6104   -0.0000 C   0  0  0  0  0  0  0  0  0  0  0  0
    9.1616    2.6549   -0.0000 C   0  0  0  0  0  0  0  0  0  0  0  0
    9.0431   -2.1571   -0.0000 C   0  0  0  0  0  0  0  0  0  0  0  0
    9.1498    5.0964   -0.0000 C   0  0  0  0  0  0  0  0  0  0  0  0
    7.7157    6.1275   -0.0000 C   0  0  0  0  0  0  0  0  0  0  0  0
   10.0268    3.8875   -0.0000 C   0  0  0  0  0  0  0  0  0  0  0  0
    8.4861   -3.5556   -0.0000 C   0  0  0  0  0  0  0  0  0  0  0  0
   10.5128   -1.9200   -0.0000 C   0  0  0  0  0  0  0  0  0  0  0  0
    9.6120    6.5305   -0.0000 O   0  0  0  0  0  0  0  0  0  0  0  0
    9.4105   -4.7171   -0.0000 C   0  0  0  0  0  0  0  0  0  0  0  0
   11.4372   -3.0815   -0.0000 C   0  0  0  0  0  0  0  0  0  0  0  0
   10.8802   -4.4801   -0.0000 C   0  0  0  0  0  0  0  0  0  0  0  0
  1  2  2  0  0  0  0
  2  3  1  0  0  0  0
  2  4  1  0  0  0  0
  3  5  2  0  0  0  0
  4  6  1  0  0  0  0
  5  7  1  0  0  0  0
  5  8  1  0  0  0  0
  7  9  1  0  0  0  0
  7 10  1  1  0  0  0
  8 11  1  0  0  0  0
 12  9  1  6  0  0  0
  9 13  1  1  0  0  0
 11 14  1  6  0  0  0
 12 15  1  0  0  0  0
 13 16  1  0  0  0  0
 14 17  1  0  0  0  0
 15 18  1  0  0  0  0
 15 19  1  1  0  0  0
 17 20  1  0  0  0  0
 18 21  1  0  0  0  0
 18 22  1  1  0  0  0
 19 23  1  0  0  0  0
 20 24  2  0  0  0  0
 20 25  1  0  0  0  0
 21 26  2  0  0  0  0
 24 27  1  0  0  0  0
 25 28  2  0  0  0  0
 27 29  2  0  0  0  0
  6  7  1  0  0  0  0
 11 12  1  0  0  0  0
 16 18  1  0  0  0  0
 21 23  1  0  0  0  0
 28 29  1  0  0  0  0
M  END
>  <MolRegNo>
1798160

>  <m>
=

>  <Value>
16.5

>  <Unit>
nM

>  <Type>
Ki

>  <pValue>
7.78

>  <Ligand Efficiency>
0.37

>  <Binding Efficiency>
19.93

>  <Surface Efficiency>
22.8

>  <Assay Index>
36121

>  <Assay Category>


>  <Assay Organism>


>  <Target ID>
65

>  <Target Name>
Cytochrome P450 19A1

>  <Target Organism>
Homo sapiens

>  <Target Description>
Target is a single protein chain

>  <Sequence Accession>
P11511

>  <Reference>
Bioorg Med Chem Lett 5 (21), 2513-2516 (1995)

>  <Pubmed ID>


>  <DOI>
10.1016/0960-894X(95)00440-5

$$$$
74893
Actelion Java MolfileCreator 1.0

 24 27  0  0  1  0  0  0  0  0999 V2000
    0.0000   -0.0000   -0.0000 I   0  0  0  0  0  0  0  0  0  0  0  0
    0.3993   -1.4473   -0.0000 C   0  0  0  0  0  0  0  0  0  0  0  0
    1.6719   -2.1834   -0.0000 C   0  0  0  0  0  0  0  0  0  0  0  0
    1.7842   -0.5864   -0.0000 O   0  0  0  0  0  0  0  0  0  0  0  0
    1.6968   -3.6681   -0.0000 C   0  0  0  0  0  0  0  0  0  0  0  0
    1.6469   -5.1529   -0.0000 C   0  0  0  0  0  0  0  0  0  0  0  0
    2.9694   -2.9071   -0.0000 C   0  0  0  0  0  0  0  0  0  0  0  0
    0.3868   -2.9071   -0.0000 C   0  0  0  0  0  0  0  0  0  0  0  0
    0.3743   -5.8640   -0.0000 C   0  0  0  0  0  0  0  0  0  0  0  0
    2.9445   -5.8890   -0.0000 C   0  0  0  0  0  0  0  0  0  0  0  0
    4.2670   -3.6557   -0.0000 C   0  0  0  0  0  0  0  0  0  0  0  0
    2.9570   -1.3974   -0.0000 C   0  0  0  0  0  0  0  0  0  0  0  0
   -0.9233   -3.6432   -0.0000 C   0  0  0  0  0  0  0  0  0  0  0  0
   -0.9357   -5.1029   -0.0000 C   0  0  0  0  0  0  0  0  0  0  0  0
    4.2296   -5.1404   -0.0000 C   0  0  0  0  0  0  0  0  0  0  0  0
    5.5521   -2.8946   -0.0000 C   0  0  0  0  0  0  0  0  0  0  0  0
    4.2545   -0.6363   -0.0000 C   0  0  0  0  0  0  0  0  0  0  0  0
   -2.2458   -5.8391   -0.0000 O   0  0  0  0  0  0  0  0  0  0  0  0
    5.5521   -1.3724   -0.0000 C   0  0  0  0  0  0  0  0  0  0  0  0
    6.9620   -3.3562   -0.0000 C   0  0  0  0  0  0  0  0  0  0  0  0
    6.9744   -0.8983   -0.0000 C   0  0  0  0  0  0  0  0  0  0  0  0
    5.5272    0.1372   -0.0000 C   0  0  0  0  0  0  0  0  0  0  0  0
    7.8603   -2.1210   -0.0000 C   0  0  0  0  0  0  0  0  0  0  0  0
    7.4361    0.5365   -0.0000 O   0  0  0  0  0  0  0  0  0  0  0  0
  1  2  1  0  0  0  0
  2  3  1  0  0  0  0
  3  4  1  0  0  0  0
  5  3  1  1  0  0  0
  5  6  1  0  0  0  0
  5  7  1  0  0  0  0
  5  8  1  0  0  0  0
  6  9  2  0  0  0  0
  6 10  1  0  0  0  0
  7 11  1  0  0  0  0
  7 12  1  0  0  0  0
  8 13  1  0  0  0  0
  9 14  1  0  0  0  0
 10 15  1  0  0  0  0
 11 16  1  0  0  0  0
 12 17  1  0  0  0  0
 14 18  2  0  0  0  0
 16 19  1  0  0  0  0
 16 20  1  0  0  0  0
 19 21  1  0  0  0  0
 19 22  1  1  0  0  0
 20 23  1  0  0  0  0
 21 24  2  0  0  0  0
 11 15  1  0  0  0  0
 13 14  1  0  0  0  0
 17 19  1  0  0  0  0
 21 23  1  0  0  0  0
M  END
>  <MolRegNo>
74893

>  <m>
=

>  <Value>
11

>  <Unit>
nM

>  <Type>
Ki

>  <pValue>
7.96

>  <Ligand Efficiency>
0.45

>  <Binding Efficiency>
17.99

>  <Surface Efficiency>
14.64

>  <Assay Index>
50926

>  <Assay Category>


>  <Assay Organism>
Homo sapiens

>  <Target ID>
65

>  <Target Name>
Cytochrome P450 19A1

>  <Target Organism>
Homo sapiens

>  <Target Description>
Target is a single protein chain

>  <Sequence Accession>
P11511

>  <Reference>
J Med Chem 34 (5), 1748-1750 (1991)

>  <Pubmed ID>
2033599

>  <DOI>
10.1021/jm00109a033

$$$$
1798161
Actelion Java MolfileCreator 1.0

 28 32  0  0  1  0  0  0  0  0999 V2000
    0.0000   -0.0000   -0.0000 O   0  0  0  0  0  0  0  0  0  0  0  0
    1.2908    0.7697   -0.0000 C   0  0  0  0  0  0  0  0  0  0  0  0
    2.5815    0.0237   -0.0000 C   0  0  0  0  0  0  0  0  0  0  0  0
    1.2789    2.2855   -0.0000 C   0  0  0  0  0  0  0  0  0  0  0  0
    3.8723    0.7934   -0.0000 C   0  0  0  0  0  0  0  0  0  0  0  0
    2.5697    3.0434   -0.0000 C   0  0  0  0  0  0  0  0  0  0  0  0
    3.8604    2.3092   -0.0000 C   0  0  0  0  0  0  0  0  0  0  0  0
    5.1630    0.0474   -0.0000 C   0  0  0  0  0  0  0  0  0  0  0  0
    5.1512    3.0670   -0.0000 C   0  0  0  0  0  0  0  0  0  0  0  0
    3.8486    3.8249   -0.0000 C   0  0  0  0  0  0  0  0  0  0  0  0
    6.4656    0.8171   -0.0000 C   0  0  0  0  0  0  0  0  0  0  0  0
    6.4538    2.3210   -0.0000 C   0  0  0  0  0  0  0  0  0  0  0  0
    5.1394    4.5828   -0.0000 C   0  0  0  0  0  0  0  0  0  0  0  0
    7.7564    0.0711   -0.0000 C   0  0  0  0  0  0  0  0  0  0  0  0
    7.7446    3.0907   -0.0000 C   0  0  0  0  0  0  0  0  0  0  0  0
    6.4420    5.3407   -0.0000 C   0  0  0  0  0  0  0  0  0  0  0  0
    7.7446   -1.4210   -0.0000 C   0  0  0  0  0  0  0  0  0  0  0  0
    7.7327    4.5946   -0.0000 C   0  0  0  0  0  0  0  0  0  0  0  0
    9.1537    2.6407   -0.0000 C   0  0  0  0  0  0  0  0  0  0  0  0
    6.4301   -2.1552   -0.0000 C   0  0  0  0  0  0  0  0  0  0  0  0
    9.0353   -2.1552   -0.0000 C   0  0  0  0  0  0  0  0  0  0  0  0
    9.1419    5.0801   -0.0000 C   0  0  0  0  0  0  0  0  0  0  0  0
    7.7090    6.1104   -0.0000 C   0  0  0  0  0  0  0  0  0  0  0  0
   10.0182    3.8723   -0.0000 C   0  0  0  0  0  0  0  0  0  0  0  0
    6.4183   -3.6473   -0.0000 C   0  0  0  0  0  0  0  0  0  0  0  0
    9.0235   -3.6473   -0.0000 C   0  0  0  0  0  0  0  0  0  0  0  0
    9.6037    6.5130   -0.0000 O   0  0  0  0  0  0  0  0  0  0  0  0
    7.7090   -4.3933   -0.0000 C   0  0  0  0  0  0  0  0  0  0  0  0
  1  2  2  0  0  0  0
  2  3  1  0  0  0  0
  2  4  1  0  0  0  0
  3  5  2  0  0  0  0
  4  6  1  0  0  0  0
  5  7  1  0  0  0  0
  5  8  1  0  0  0  0
  7  9  1  0  0  0  0
  7 10  1  1  0  0  0
  8 11  1  0  0  0  0
 12  9  1  6  0  0  0
  9 13  1  1  0  0  0
 11 14  1  6  0  0  0
 12 15  1  0  0  0  0
 13 16  1  0  0  0  0
 14 17  1  0  0  0  0
 15 18  1  0  0  0  0
 15 19  1  1  0  0  0
 17 20  2  0  0  0  0
 17 21  1  0  0  0  0
 18 22  1  0  0  0  0
 18 23  1  1  0  0  0
 19 24  1  0  0  0  0
 20 25  1  0  0  0  0
 21 26  2  0  0  0  0
 22 27  2  0  0  0  0
 25 28  2  0  0  0  0
  6  7  1  0  0  0  0
 11 12  1  0  0  0  0
 16 18  1  0  0  0  0
 22 24  1  0  0  0  0
 26 28  1  0  0  0  0
M  END
>  <MolRegNo>
1798161

>  <m>
=

>  <Value>
13.1

>  <Unit>
nM

>  <Type>
Ki

>  <pValue>
7.88

>  <Ligand Efficiency>
0.38

>  <Binding Efficiency>
20.93

>  <Surface Efficiency>
23.09

>  <Assay Index>
36121

>  <Assay Category>


>  <Assay Organism>


>  <Target ID>
65

>  <Target Name>
Cytochrome P450 19A1

>  <Target Organism>
Homo sapiens

>  <Target Description>
Target is a single protein chain

>  <Sequence Accession>
P11511

>  <Reference>
Bioorg Med Chem Lett 5 (21), 2513-2516 (1995)

>  <Pubmed ID>


>  <DOI>
10.1016/0960-894X(95)00440-5

$$$$
74929
Actelion Java MolfileCreator 1.0

 24 27  0  0  1  0  0  0  0  0999 V2000
    0.0000   -0.0000   -0.0000 Br  0  0  0  0  0  0  0  0  0  0  0  0
    0.3959   -1.4352   -0.0000 C   0  0  0  0  0  0  0  0  0  0  0  0
    1.6827   -2.1776   -0.0000 C   0  0  0  0  0  0  0  0  0  0  0  0
    1.7693   -0.5939   -0.0000 O   0  0  0  0  0  0  0  0  0  0  0  0
    1.6827   -3.6623   -0.0000 C   0  0  0  0  0  0  0  0  0  0  0  0
    1.6580   -5.1471   -0.0000 C   0  0  0  0  0  0  0  0  0  0  0  0
    2.9447   -2.8952   -0.0000 C   0  0  0  0  0  0  0  0  0  0  0  0
    0.3836   -2.8952   -0.0000 C   0  0  0  0  0  0  0  0  0  0  0  0
    0.3712   -5.8771   -0.0000 C   0  0  0  0  0  0  0  0  0  0  0  0
    2.9324   -5.8894   -0.0000 C   0  0  0  0  0  0  0  0  0  0  0  0
    4.2439   -3.6500   -0.0000 C   0  0  0  0  0  0  0  0  0  0  0  0
    2.9324   -1.3858   -0.0000 C   0  0  0  0  0  0  0  0  0  0  0  0
   -0.9280   -3.6376   -0.0000 C   0  0  0  0  0  0  0  0  0  0  0  0
   -0.9403   -5.1100   -0.0000 C   0  0  0  0  0  0  0  0  0  0  0  0
    4.2191   -5.1471   -0.0000 C   0  0  0  0  0  0  0  0  0  0  0  0
    5.5306   -2.8829   -0.0000 C   0  0  0  0  0  0  0  0  0  0  0  0
    4.2315   -0.6186   -0.0000 C   0  0  0  0  0  0  0  0  0  0  0  0
   -2.2395   -5.8523   -0.0000 O   0  0  0  0  0  0  0  0  0  0  0  0
    5.5306   -1.3486   -0.0000 C   0  0  0  0  0  0  0  0  0  0  0  0
    6.9288   -3.3530   -0.0000 C   0  0  0  0  0  0  0  0  0  0  0  0
    6.9535   -0.9032   -0.0000 C   0  0  0  0  0  0  0  0  0  0  0  0
    5.5059    0.1608   -0.0000 C   0  0  0  0  0  0  0  0  0  0  0  0
    7.8196   -2.1281   -0.0000 C   0  0  0  0  0  0  0  0  0  0  0  0
    7.4113    0.5444   -0.0000 O   0  0  0  0  0  0  0  0  0  0  0  0
  1  2  1  0  0  0  0
  2  3  1  0  0  0  0
  3  4  2  0  0  0  0
  5  3  1  1  0  0  0
  5  6  1  0  0  0  0
  5  7  1  0  0  0  0
  5  8  1  0  0  0  0
  6  9  2  0  0  0  0
  6 10  1  0  0  0  0
  7 11  1  0  0  0  0
  7 12  1  0  0  0  0
  8 13  1  0  0  0  0
  9 14  1  0  0  0  0
 10 15  1  0  0  0  0
 11 16  1  0  0  0  0
 12 17  1  0  0  0  0
 14 18  2  0  0  0  0
 16 19  1  0  0  0  0
 16 20  1  0  0  0  0
 19 21  1  0  0  0  0
 19 22  1  1  0  0  0
 20 23  1  0  0  0  0
 21 24  2  0  0  0  0
 11 15  1  0  0  0  0
 13 14  1  0  0  0  0
 17 19  1  0  0  0  0
 21 23  1  0  0  0  0
M  END
>  <MolRegNo>
74929

>  <m>
=

>  <Value>
190

>  <Unit>
nM

>  <Type>
Ki

>  <pValue>
6.72

>  <Ligand Efficiency>
0.38

>  <Binding Efficiency>
17.09

>  <Surface Efficiency>
13.12

>  <Assay Index>
50926

>  <Assay Category>


>  <Assay Organism>
Homo sapiens

>  <Target ID>
65

>  <Target Name>
Cytochrome P450 19A1

>  <Target Organism>
Homo sapiens

>  <Target Description>
Target is a single protein chain

>  <Sequence Accession>
P11511

>  <Reference>
J Med Chem 34 (5), 1748-1750 (1991)

>  <Pubmed ID>
2033599

>  <DOI>
10.1021/jm00109a033

$$$$
113025
Actelion Java MolfileCreator 1.0

 23 26  0  0  0  0  0  0  0  0999 V2000
    0.0000   -0.0000   -0.0000 O   0  0  0  0  0  0  0  0  0  0  0  0
    1.2881    0.7633   -0.0000 C   0  0  0  0  0  0  0  0  0  0  0  0
    2.5881    0.0239   -0.0000 C   0  0  0  0  0  0  0  0  0  0  0  0
    1.2761    2.2780   -0.0000 C   0  0  0  0  0  0  0  0  0  0  0  0
    2.5761   -1.4550   -0.0000 O   0  0  0  0  0  0  0  0  0  0  0  0
    3.8761    0.7872   -0.0000 C   0  0  0  0  0  0  0  0  0  0  0  0
    2.5761    3.0413   -0.0000 C   0  0  0  0  0  0  0  0  0  0  0  0
    3.8642    2.3018   -0.0000 C   0  0  0  0  0  0  0  0  0  0  0  0
    5.1403    0.0477   -0.0000 C   0  0  0  0  0  0  0  0  0  0  0  0
    5.1284    3.0651   -0.0000 C   0  0  0  0  0  0  0  0  0  0  0  0
    3.8403    3.8165   -0.0000 C   0  0  0  0  0  0  0  0  0  0  0  0
    6.4284    0.8110   -0.0000 C   0  0  0  0  0  0  0  0  0  0  0  0
    6.4165    2.3257   -0.0000 C   0  0  0  0  0  0  0  0  0  0  0  0
    5.1165    4.5798   -0.0000 C   0  0  0  0  0  0  0  0  0  0  0  0
    7.7045    3.0532   -0.0000 C   0  0  0  0  0  0  0  0  0  0  0  0
    6.4165    5.3312   -0.0000 C   0  0  0  0  0  0  0  0  0  0  0  0
    7.7165    4.5798   -0.0000 C   0  0  0  0  0  0  0  0  0  0  0  0
    8.9807    2.2899   -0.0000 C   0  0  0  0  0  0  0  0  0  0  0  0
    9.0164    5.3192   -0.0000 C   0  0  0  0  0  0  0  0  0  0  0  0
    7.6926    6.0945   -0.0000 C   0  0  0  0  0  0  0  0  0  0  0  0
   10.2807    3.0293   -0.0000 C   0  0  0  0  0  0  0  0  0  0  0  0
    9.0284    6.8339   -0.0000 O   0  0  0  0  0  0  0  0  0  0  0  0
   10.3045    4.5559   -0.0000 C   0  0  0  0  0  0  0  0  0  0  0  0
  1  2  2  0  0  0  0
  2  3  1  0  0  0  0
  2  4  1  0  0  0  0
  3  5  1  0  0  0  0
  3  6  2  0  0  0  0
  4  7  1  0  0  0  0
  6  8  1  0  0  0  0
  6  9  1  0  0  0  0
  8 10  1  0  0  0  0
  8 11  1  0  0  0  0
  9 12  1  0  0  0  0
 10 13  1  0  0  0  0
 10 14  1  0  0  0  0
 13 15  1  0  0  0  0
 14 16  1  0  0  0  0
 15 17  1  0  0  0  0
 15 18  1  0  0  0  0
 17 19  1  0  0  0  0
 17 20  1  0  0  0  0
 18 21  1  0  0  0  0
 19 22  2  0  0  0  0
 19 23  1  0  0  0  0
  7  8  1  0  0  0  0
 12 13  1  0  0  0  0
 16 17  1  0  0  0  0
 21 23  1  0  0  0  0
M  END
>  <MolRegNo>
113025

>  <m>
=

>  <Value>
10.2

>  <Unit>
nM

>  <Type>
Ki

>  <pValue>
7.99

>  <Ligand Efficiency>
0.47

>  <Binding Efficiency>
25.25

>  <Surface Efficiency>
14.7

>  <Assay Index>
50931

>  <Assay Category>


>  <Assay Organism>
Homo sapiens

>  <Target ID>
65

>  <Target Name>
Cytochrome P450 19A1

>  <Target Organism>
Homo sapiens

>  <Target Description>
Target is a single protein chain

>  <Sequence Accession>
P11511

>  <Reference>
J Med Chem 32 (10), 2231-2239 (1989)

>  <Pubmed ID>
2677377

>  <DOI>
10.1021/jm00130a001

$$$$
74890
Actelion Java MolfileCreator 1.0

 23 27  0  0  1  0  0  0  0  0999 V2000
    0.0000   -0.0000   -0.0000 O   0  0  0  0  0  0  0  0  0  0  0  0
    1.2431    0.7498   -0.0000 C   0  0  0  0  0  0  0  0  0  0  0  0
    2.4862    0.0395   -0.0000 C   0  0  0  0  0  0  0  0  0  0  0  0
    1.2234    2.2099   -0.0000 C   0  0  0  0  0  0  0  0  0  0  0  0
    3.6898    0.7695   -0.0000 C   0  0  0  0  0  0  0  0  0  0  0  0
    2.4664    2.9597   -0.0000 C   0  0  0  0  0  0  0  0  0  0  0  0
    1.1839    3.6898   -0.0000 C   0  0  0  0  0  0  0  0  0  0  0  0
    3.7095    2.2494   -0.0000 C   0  0  0  0  0  0  0  0  0  0  0  0
    4.9526    0.0592   -0.0000 C   0  0  0  0  0  0  0  0  0  0  0  0
    3.6701    3.7095   -0.0000 C   0  0  0  0  0  0  0  0  0  0  0  0
    4.9329    2.9992   -0.0000 C   0  0  0  0  0  0  0  0  0  0  0  0
    6.1957    0.8090   -0.0000 C   0  0  0  0  0  0  0  0  0  0  0  0
    3.7687    5.2683   -0.0000 O   0  0  0  0  0  0  0  0  0  0  0  0
    6.1957    2.2691   -0.0000 C   0  0  0  0  0  0  0  0  0  0  0  0
    4.9131    4.4791   -0.0000 C   0  0  0  0  0  0  0  0  0  0  0  0
    7.4388    3.0189   -0.0000 C   0  0  0  0  0  0  0  0  0  0  0  0
    6.1760    5.2289   -0.0000 C   0  0  0  0  0  0  0  0  0  0  0  0
    7.4388    4.5185   -0.0000 C   0  0  0  0  0  0  0  0  0  0  0  0
    8.8003    2.5848   -0.0000 C   0  0  0  0  0  0  0  0  0  0  0  0
    8.8200    4.9921   -0.0000 C   0  0  0  0  0  0  0  0  0  0  0  0
    7.3993    5.9984   -0.0000 C   0  0  0  0  0  0  0  0  0  0  0  0
    9.6684    3.7885   -0.0000 C   0  0  0  0  0  0  0  0  0  0  0  0
    9.2541    6.3930   -0.0000 O   0  0  0  0  0  0  0  0  0  0  0  0
  1  2  2  0  0  0  0
  2  3  1  0  0  0  0
  2  4  1  0  0  0  0
  3  5  2  0  0  0  0
  4  6  1  0  0  0  0
  4  7  1  1  0  0  0
  5  8  1  0  0  0  0
  5  9  1  0  0  0  0
  7 10  1  0  0  0  0
  8 11  1  0  0  0  0
  9 12  1  0  0  0  0
 10 13  1  6  0  0  0
 11 14  1  0  0  0  0
 11 15  1  0  0  0  0
 14 16  1  0  0  0  0
 15 17  1  0  0  0  0
 16 18  1  0  0  0  0
 16 19  1  0  0  0  0
 18 20  1  0  0  0  0
 18 21  1  1  0  0  0
 19 22  1  0  0  0  0
 20 23  2  0  0  0  0
  6  8  1  0  0  0  0
  8 10  1  1  0  0  0
 12 14  1  0  0  0  0
 17 18  1  0  0  0  0
 20 22  1  0  0  0  0
M  END
>  <MolRegNo>
74890

>  <m>
=

>  <Value>
926

>  <Unit>
nM

>  <Type>
Ki

>  <pValue>
6.03

>  <Ligand Efficiency>
0.36

>  <Binding Efficiency>
19.19

>  <Surface Efficiency>
11.1

>  <Assay Index>
50926

>  <Assay Category>


>  <Assay Organism>
Homo sapiens

>  <Target ID>
65

>  <Target Name>
Cytochrome P450 19A1

>  <Target Organism>
Homo sapiens

>  <Target Description>
Target is a single protein chain

>  <Sequence Accession>
P11511

>  <Reference>
J Med Chem 34 (5), 1748-1750 (1991)

>  <Pubmed ID>
2033599

>  <DOI>
10.1021/jm00109a033

$$$$
15191
Actelion Java MolfileCreator 1.0

 26 30  0  0  1  0  0  0  0  0999 V2000
    0.0000   -0.0000   -0.0000 O   0  0  0  0  0  0  0  0  0  0  0  0
    1.4423   -0.2814   -0.0000 C   0  0  0  0  0  0  0  0  0  0  0  0
    1.9230   -1.6885   -0.0000 O   0  0  0  0  0  0  0  0  0  0  0  0
    2.3920    0.8560   -0.0000 C   0  0  0  0  0  0  0  0  0  0  0  0
    0.9498   -2.8024   -0.0000 C   0  0  0  0  0  0  0  0  0  0  0  0
    3.8695    0.5863   -0.0000 C   0  0  0  0  0  0  0  0  0  0  0  0
    1.8761    2.2865   -0.0000 C   0  0  0  0  0  0  0  0  0  0  0  0
    4.3502   -0.8325   -0.0000 O   0  0  0  0  0  0  0  0  0  0  0  0
    4.8427    1.7354   -0.0000 C   0  0  0  0  0  0  0  0  0  0  0  0
    2.8493    3.4239   -0.0000 C   0  0  0  0  0  0  0  0  0  0  0  0
    0.3987    2.5914   -0.0000 C   0  0  0  0  0  0  0  0  0  0  0  0
    4.3150    3.1542   -0.0000 C   0  0  0  0  0  0  0  0  0  0  0  0
    2.3569    4.8544   -0.0000 C   0  0  0  0  0  0  0  0  0  0  0  0
   -0.0821    3.9633   -0.0000 C   0  0  0  0  0  0  0  0  0  0  0  0
    0.8911    5.1124   -0.0000 N   0  0  0  0  0  0  0  0  0  0  0  0
   -1.5361    4.2447   -0.0000 C   0  0  0  0  0  0  0  0  0  0  0  0
    0.3987    6.5312   -0.0000 C   0  0  0  0  0  0  0  0  0  0  0  0
   -2.7438    3.3653   -0.0000 N   0  0  0  0  0  0  0  0  0  0  0  0
   -2.0637    5.6869   -0.0000 C   0  0  0  0  0  0  0  0  0  0  0  0
   -1.0670    6.8243   -0.0000 C   0  0  0  0  0  0  0  0  0  0  0  0
   -3.9984    4.2330   -0.0000 C   0  0  0  0  0  0  0  0  0  0  0  0
   -3.5646    5.6518   -0.0000 C   0  0  0  0  0  0  0  0  0  0  0  0
   -5.4641    3.9164   -0.0000 C   0  0  0  0  0  0  0  0  0  0  0  0
   -4.5964    6.7657   -0.0000 C   0  0  0  0  0  0  0  0  0  0  0  0
   -6.5195    5.0068   -0.0000 C   0  0  0  0  0  0  0  0  0  0  0  0
   -6.0739    6.4491   -0.0000 C   0  0  0  0  0  0  0  0  0  0  0  0
  1  2  2  0  0  0  0
  2  3  1  0  0  0  0
  4  2  1  6  0  0  0
  3  5  1  0  0  0  0
  4  6  1  0  0  0  0
  4  7  1  0  0  0  0
  6  8  1  6  0  0  0
  6  9  1  0  0  0  0
  7 10  1  0  0  0  0
  7 11  1  1  0  0  0
  9 12  1  0  0  0  0
 10 13  1  6  0  0  0
 11 14  1  0  0  0  0
 13 15  1  0  0  0  0
 14 16  1  0  0  0  0
 15 17  1  0  0  0  0
 16 18  1  0  0  0  0
 16 19  2  0  0  0  0
 17 20  1  0  0  0  0
 18 21  1  0  0  0  0
 19 22  1  0  0  0  0
 21 23  1  0  0  0  0
 22 24  1  0  0  0  0
 23 25  2  0  0  0  0
 24 26  2  0  0  0  0
 10 12  1  0  0  0  0
 14 15  1  1  0  0  0
 19 20  1  0  0  0  0
 21 22  2  0  0  0  0
 25 26  1  0  0  0  0
M  END
>  <MolRegNo>
15191

>  <m>
=

>  <Value>
180

>  <Unit>
nM

>  <Type>
Ki

>  <pValue>
6.75

>  <Ligand Efficiency>
0

>  <Binding Efficiency>
0

>  <Surface Efficiency>
0

>  <Assay Index>
122804

>  <Assay Category>


>  <Assay Organism>
Homo sapiens

>  <Target ID>
11365

>  <Target Name>
Cytochrome P450 2D6

>  <Target Organism>
Homo sapiens

>  <Target Description>
Target is a single protein chain

>  <Sequence Accession>
P10635

>  <Reference>
J Med Chem 36 (9), 1136-1145 (1993)

>  <Pubmed ID>
8487254

>  <DOI>
10.1021/jm00061a004

$$$$
14855
Actelion Java MolfileCreator 1.0

 21 23  0  0  0  0  0  0  0  0999 V2000
    0.0000   -0.0000   -0.0000 N   0  0  0  0  0  0  0  0  0  0  0  0
   -1.5365    0.0120   -0.0000 C   0  0  0  0  0  0  0  0  0  0  0  0
    0.7322   -1.2724   -0.0000 C   0  0  0  0  0  0  0  0  0  0  0  0
    0.7322    1.3204   -0.0000 C   0  0  0  0  0  0  0  0  0  0  0  0
   -1.5485   -1.4765   -0.0000 C   0  0  0  0  0  0  0  0  0  0  0  0
   -1.5485    1.5485   -0.0000 C   0  0  0  0  0  0  0  0  0  0  0  0
    2.2447   -1.2604   -0.0000 C   0  0  0  0  0  0  0  0  0  0  0  0
    2.2447    1.3444   -0.0000 C   0  0  0  0  0  0  0  0  0  0  0  0
    2.9889    0.0360   -0.0000 C   0  0  0  0  0  0  0  0  0  0  0  0
    4.0573    1.1404   -0.0000 C   0  0  0  0  0  0  0  0  0  0  0  0
    4.0453   -0.9843   -0.0000 C   0  0  0  0  0  0  0  0  0  0  0  0
    3.9612    2.6648   -0.0000 C   0  0  0  0  0  0  0  0  0  0  0  0
    5.3657    0.4802   -0.0000 C   0  0  0  0  0  0  0  0  0  0  0  0
    5.2817   -0.1080   -0.0000 C   0  0  0  0  0  0  0  0  0  0  0  0
    4.1773   -2.4608   -0.0000 C   0  0  0  0  0  0  0  0  0  0  0  0
    5.1976    3.4811   -0.0000 C   0  0  0  0  0  0  0  0  0  0  0  0
    6.6141    1.3204   -0.0000 C   0  0  0  0  0  0  0  0  0  0  0  0
    6.6501   -0.7442   -0.0000 C   0  0  0  0  0  0  0  0  0  0  0  0
    5.5217   -3.0850   -0.0000 C   0  0  0  0  0  0  0  0  0  0  0  0
    6.5181    2.8449   -0.0000 C   0  0  0  0  0  0  0  0  0  0  0  0
    6.7461   -2.1967   -0.0000 C   0  0  0  0  0  0  0  0  0  0  0  0
  1  2  1  0  0  0  0
  1  3  1  0  0  0  0
  1  4  1  0  0  0  0
  2  5  1  0  0  0  0
  2  6  1  0  0  0  0
  3  7  1  0  0  0  0
  4  8  1  0  0  0  0
  7  9  1  0  0  0  0
  9 10  1  0  0  0  0
  9 11  1  0  0  0  0
 10 12  2  0  0  0  0
 10 13  1  0  0  0  0
 11 14  2  0  0  0  0
 11 15  1  0  0  0  0
 12 16  1  0  0  0  0
 13 17  2  0  0  0  0
 14 18  1  0  0  0  0
 15 19  2  0  0  0  0
 16 20  2  0  0  0  0
 18 21  2  0  0  0  0
  8  9  1  0  0  0  0
 17 20  1  0  0  0  0
 19 21  1  0  0  0  0
M  END
>  <MolRegNo>
14855

>  <m>
=

>  <Value>
4.8

>  <Unit>
nM

>  <Type>
Ki

>  <pValue>
8.32

>  <Ligand Efficiency>
0

>  <Binding Efficiency>
0

>  <Surface Efficiency>
0

>  <Assay Index>
147623

>  <Assay Category>


>  <Assay Organism>
Homo sapiens

>  <Target ID>
11365

>  <Target Name>
Cytochrome P450 2D6

>  <Target Organism>
Homo sapiens

>  <Target Description>
Target is a single protein chain

>  <Sequence Accession>
P10635

>  <Reference>
J Med Chem 36 (9), 1136-1145 (1993)

>  <Pubmed ID>
8487254

>  <DOI>
10.1021/jm00061a004

$$$$
1376039
Actelion Java MolfileCreator 1.0

 25 27  0  0  1  0  0  0  0  0999 V2000
    0.0000   -0.0000   -0.0000 O   0  0  0  0  0  0  0  0  0  0  0  0
   -1.3014    0.7419   -0.0000 C   0  0  0  0  0  0  0  0  0  0  0  0
   -2.6150    0.0122   -0.0000 C   0  0  0  0  0  0  0  0  0  0  0  0
   -1.3379    2.2744   -0.0000 C   0  0  0  0  0  0  0  0  0  0  0  0
   -3.9529    0.7419   -0.0000 C   0  0  0  0  0  0  0  0  0  0  0  0
   -2.6271   -1.4838   -0.0000 C   0  0  0  0  0  0  0  0  0  0  0  0
   -0.0243    3.0650   -0.0000 C   0  0  0  0  0  0  0  0  0  0  0  0
   -5.2543    0.0243   -0.0000 C   0  0  0  0  0  0  0  0  0  0  0  0
   -3.9164   -2.2136   -0.0000 C   0  0  0  0  0  0  0  0  0  0  0  0
    1.2528    2.3352   -0.0000 N   0  0  0  0  0  0  0  0  0  0  0  0
   -0.0365    4.5853   -0.0000 C   0  0  0  0  0  0  0  0  0  0  0  0
   -5.2664   -1.4474   -0.0000 C   0  0  0  0  0  0  0  0  0  0  0  0
    2.5542    3.1015   -0.0000 C   0  0  0  0  0  0  0  0  0  0  0  0
    1.2284    0.8392   -0.0000 C   0  0  0  0  0  0  0  0  0  0  0  0
    1.2284    5.3637   -0.0000 C   0  0  0  0  0  0  0  0  0  0  0  0
    2.5298    4.6583   -0.0000 C   0  0  0  0  0  0  0  0  0  0  0  0
    3.8921    2.4082   -0.0000 C   0  0  0  0  0  0  0  0  0  0  0  0
    3.8556    0.9122   -0.0000 C   0  0  0  0  0  0  0  0  0  0  0  0
    2.7123    0.1095   -0.0000 O   0  0  0  0  0  0  0  0  0  0  0  0
    5.3394    0.2189   -0.0000 C   0  0  0  0  0  0  0  0  0  0  0  0
    5.3029   -1.2528   -0.0000 C   0  0  0  0  0  0  0  0  0  0  0  0
    6.5678    1.0217   -0.0000 C   0  0  0  0  0  0  0  0  0  0  0  0
    6.7746   -1.8852   -0.0000 C   0  0  0  0  0  0  0  0  0  0  0  0
    7.9057    0.3770   -0.0000 C   0  0  0  0  0  0  0  0  0  0  0  0
    7.8936   -1.0825   -0.0000 C   0  0  0  0  0  0  0  0  0  0  0  0
  1  2  2  0  0  0  0
  2  3  1  0  0  0  0
  2  4  1  0  0  0  0
  3  5  2  0  0  0  0
  3  6  1  0  0  0  0
  7  4  1  6  0  0  0
  5  8  1  0  0  0  0
  6  9  2  0  0  0  0
  7 10  1  0  0  0  0
  7 11  1  0  0  0  0
  8 12  2  0  0  0  0
 10 13  1  0  0  0  0
 10 14  1  0  0  0  0
 11 15  1  0  0  0  0
 13 16  1  0  0  0  0
 13 17  1  6  0  0  0
 17 18  1  0  0  0  0
 18 19  1  1  0  0  0
 18 20  1  0  0  0  0
 20 21  2  0  0  0  0
 20 22  1  0  0  0  0
 21 23  1  0  0  0  0
 22 24  2  0  0  0  0
 23 25  2  0  0  0  0
  9 12  1  0  0  0  0
 15 16  1  0  0  0  0
 24 25  1  0  0  0  0
M  END
>  <MolRegNo>
1376039

>  <m>
=

>  <Value>
120

>  <Unit>
nM

>  <Type>
Ki

>  <pValue>
6.92

>  <Ligand Efficiency>
0

>  <Binding Efficiency>
0

>  <Surface Efficiency>
0

>  <Assay Index>
147623

>  <Assay Category>


>  <Assay Organism>
Homo sapiens

>  <Target ID>
11365

>  <Target Name>
Cytochrome P450 2D6

>  <Target Organism>
Homo sapiens

>  <Target Description>
Target is a single protein chain

>  <Sequence Accession>
P10635

>  <Reference>
J Med Chem 36 (9), 1136-1145 (1993)

>  <Pubmed ID>
8487254

>  <DOI>
10.1021/jm00061a004

$$$$
6216
Actelion Java MolfileCreator 1.0

 21 23  0  0  0  0  0  0  0  0999 V2000
    0.0000   -0.0000   -0.0000 Cl  0  0  0  0  0  0  0  0  0  0  0  0
    1.2764   -0.7396   -0.0000 C   0  0  0  0  0  0  0  0  0  0  0  0
    2.5646   -0.0000   -0.0000 C   0  0  0  0  0  0  0  0  0  0  0  0
    1.2644   -2.2426   -0.0000 C   0  0  0  0  0  0  0  0  0  0  0  0
    3.8529   -0.7396   -0.0000 C   0  0  0  0  0  0  0  0  0  0  0  0
    2.5408   -2.9702   -0.0000 C   0  0  0  0  0  0  0  0  0  0  0  0
    5.1412    0.0239   -0.0000 N   0  0  0  0  0  0  0  0  0  0  0  0
    3.8291   -2.2306   -0.0000 C   0  0  0  0  0  0  0  0  0  0  0  0
    6.4295   -0.7396   -0.0000 C   0  0  0  0  0  0  0  0  0  0  0  0
    5.1531    1.5269   -0.0000 C   0  0  0  0  0  0  0  0  0  0  0  0
    5.1293   -2.9702   -0.0000 S   0  0  0  0  0  0  0  0  0  0  0  0
    6.4176   -2.2306   -0.0000 C   0  0  0  0  0  0  0  0  0  0  0  0
    7.7416    0.0358   -0.0000 C   0  0  0  0  0  0  0  0  0  0  0  0
    3.8410    2.3141   -0.0000 C   0  0  0  0  0  0  0  0  0  0  0  0
    7.7058   -2.9941   -0.0000 C   0  0  0  0  0  0  0  0  0  0  0  0
    9.0299   -0.7276   -0.0000 C   0  0  0  0  0  0  0  0  0  0  0  0
    3.8291    3.8291   -0.0000 C   0  0  0  0  0  0  0  0  0  0  0  0
    8.9941   -2.2545   -0.0000 C   0  0  0  0  0  0  0  0  0  0  0  0
    2.5169    4.6163   -0.0000 N   0  0  0  0  0  0  0  0  0  0  0  0
    2.5169    6.1432   -0.0000 C   0  0  0  0  0  0  0  0  0  0  0  0
    1.2048    3.8887   -0.0000 C   0  0  0  0  0  0  0  0  0  0  0  0
  1  2  1  0  0  0  0
  2  3  2  0  0  0  0
  2  4  1  0  0  0  0
  3  5  1  0  0  0  0
  4  6  2  0  0  0  0
  5  7  1  0  0  0  0
  5  8  2  0  0  0  0
  7  9  1  0  0  0  0
  7 10  1  0  0  0  0
  8 11  1  0  0  0  0
  9 12  2  0  0  0  0
  9 13  1  0  0  0  0
 10 14  1  0  0  0  0
 12 15  1  0  0  0  0
 13 16  2  0  0  0  0
 14 17  1  0  0  0  0
 15 18  2  0  0  0  0
 17 19  1  0  0  0  0
 19 20  1  0  0  0  0
 19 21  1  0  0  0  0
  6  8  1  0  0  0  0
 11 12  1  0  0  0  0
 16 18  1  0  0  0  0
M  END
>  <MolRegNo>
6216

>  <m>
=

>  <Value>
7000

>  <Unit>
nM

>  <Type>
Ki

>  <pValue>
5.16

>  <Ligand Efficiency>
0

>  <Binding Efficiency>
0

>  <Surface Efficiency>
0

>  <Assay Index>
147623

>  <Assay Category>


>  <Assay Organism>
Homo sapiens

>  <Target ID>
11365

>  <Target Name>
Cytochrome P450 2D6

>  <Target Organism>
Homo sapiens

>  <Target Description>
Target is a single protein chain

>  <Sequence Accession>
P10635

>  <Reference>
J Med Chem 36 (9), 1136-1145 (1993)

>  <Pubmed ID>
8487254

>  <DOI>
10.1021/jm00061a004

$$$$
676295
Actelion Java MolfileCreator 1.0

 31 34  0  0  0  0  0  0  0  0999 V2000
    0.0000   -0.0000   -0.0000 Cl  0  0  0  0  0  0  0  0  0  0  0  0
   -8.1802    5.1249   -0.0000 O   0  0  0  0  0  0  0  0  0  0  0  0
   -9.4983    4.3365   -0.0000 C   0  0  0  0  0  0  0  0  0  0  0  0
   -7.1207    4.5459   -0.0000 C   0  0  0  0  0  0  0  0  0  0  0  0
   -9.4860    2.7965   -0.0000 C   0  0  0  0  0  0  0  0  0  0  0  0
  -10.8535    5.0756   -0.0000 C   0  0  0  0  0  0  0  0  0  0  0  0
  -10.8042    2.0081   -0.0000 C   0  0  0  0  0  0  0  0  0  0  0  0
  -12.1840    4.2749   -0.0000 C   0  0  0  0  0  0  0  0  0  0  0  0
  -12.1594    2.7473   -0.0000 C   0  0  0  0  0  0  0  0  0  0  0  0
  -10.7796    0.4928   -0.0000 C   0  0  0  0  0  0  0  0  0  0  0  0
  -13.4776    1.9588   -0.0000 N   0  0  0  0  0  0  0  0  0  0  0  0
  -12.0978   -0.2957   -0.0000 C   0  0  0  0  0  0  0  0  0  0  0  0
   -9.4491   -0.2341   -0.0000 C   0  0  0  0  0  0  0  0  0  0  0  0
  -13.4529    0.4435   -0.0000 C   0  0  0  0  0  0  0  0  0  0  0  0
   -9.4367   -1.4537   -0.0000 O   0  0  0  0  0  0  0  0  0  0  0  0
   -8.1432    0.5790   -0.0000 C   0  0  0  0  0  0  0  0  0  0  0  0
   -6.8373   -0.1971   -0.0000 N   0  0  0  0  0  0  0  0  0  0  0  0
   -8.1555    2.1066   -0.0000 C   0  0  0  0  0  0  0  0  0  0  0  0
   -6.8497   -1.7494   -0.0000 C   0  0  0  0  0  0  0  0  0  0  0  0
   -5.4822    0.6037   -0.0000 C   0  0  0  0  0  0  0  0  0  0  0  0
   -6.0612    0.9486   -0.0000 C   0  0  0  0  0  0  0  0  0  0  0  0
   -6.8497    2.8951   -0.0000 C   0  0  0  0  0  0  0  0  0  0  0  0
   -8.1925   -2.5009   -0.0000 C   0  0  0  0  0  0  0  0  0  0  0  0
   -5.5315   -2.5009   -0.0000 C   0  0  0  0  0  0  0  0  0  0  0  0
   -5.4945    2.1313   -0.0000 C   0  0  0  0  0  0  0  0  0  0  0  0
   -7.5149    1.6878   -0.0000 C   0  0  0  0  0  0  0  0  0  0  0  0
   -8.2048   -4.0285   -0.0000 C   0  0  0  0  0  0  0  0  0  0  0  0
   -5.5438   -4.0285   -0.0000 C   0  0  0  0  0  0  0  0  0  0  0  0
   -4.1763    2.9197   -0.0000 C   0  0  0  0  0  0  0  0  0  0  0  0
   -6.8866   -4.7800   -0.0000 C   0  0  0  0  0  0  0  0  0  0  0  0
   -3.1168    2.3284   -0.0000 C   0  0  0  0  0  0  0  0  0  0  0  0
  2  3  1  0  0  0  0
  2  4  1  0  0  0  0
  3  5  2  0  0  0  0
  3  6  1  0  0  0  0
  5  7  1  0  0  0  0
  6  8  2  0  0  0  0
  7  9  1  0  0  0  0
  7 10  2  0  0  0  0
  9 11  2  0  0  0  0
 10 12  1  0  0  0  0
 10 13  1  0  0  0  0
 11 14  1  0  0  0  0
 13 15  1  0  0  0  0
 13 16  1  0  0  0  0
 16 17  1  0  0  0  0
 16 18  1  0  0  0  0
 17 19  1  0  0  0  0
 17 20  1  0  0  0  0
 17 21  1  0  0  0  0
 18 22  1  0  0  0  0
 19 23  2  0  0  0  0
 19 24  1  0  0  0  0
 20 25  1  0  0  0  0
 21 26  1  0  0  0  0
 23 27  1  0  0  0  0
 24 28  2  0  0  0  0
 25 29  1  0  0  0  0
 27 30  2  0  0  0  0
 29 31  2  0  0  0  0
  8  9  1  0  0  0  0
 12 14  2  0  0  0  0
 22 25  1  0  0  0  0
 22 26  1  0  0  0  0
 28 30  1  0  0  0  0
M  CHG  2   1  -1  17   1
M  END
>  <MolRegNo>
676295

>  <m>
=

>  <Value>
25000

>  <Unit>
nM

>  <Type>
Ki

>  <pValue>
4.6

>  <Ligand Efficiency>
0

>  <Binding Efficiency>
0

>  <Surface Efficiency>
0

>  <Assay Index>
122804

>  <Assay Category>


>  <Assay Organism>
Homo sapiens

>  <Target ID>
11365

>  <Target Name>
Cytochrome P450 2D6

>  <Target Organism>
Homo sapiens

>  <Target Description>
Target is a single protein chain

>  <Sequence Accession>
P10635

>  <Reference>
J Med Chem 36 (9), 1136-1145 (1993)

>  <Pubmed ID>
8487254

>  <DOI>
10.1021/jm00061a004

$$$$
15252
Actelion Java MolfileCreator 1.0

 11 12  0  0  0  0  0  0  0  0999 V2000
    0.0000   -0.0000   -0.0000 O   0  0  0  0  0  0  0  0  0  0  0  0
   -1.3028    0.7511   -0.0000 C   0  0  0  0  0  0  0  0  0  0  0  0
    1.2793    0.7511   -0.0000 C   0  0  0  0  0  0  0  0  0  0  0  0
   -2.6055    0.0235   -0.0000 C   0  0  0  0  0  0  0  0  0  0  0  0
   -1.3145    2.2534   -0.0000 C   0  0  0  0  0  0  0  0  0  0  0  0
   -3.9083    0.7746   -0.0000 C   0  0  0  0  0  0  0  0  0  0  0  0
   -2.6173    3.0163   -0.0000 C   0  0  0  0  0  0  0  0  0  0  0  0
   -3.9200    2.2769   -0.0000 C   0  0  0  0  0  0  0  0  0  0  0  0
   -5.3402    0.3286   -0.0000 C   0  0  0  0  0  0  0  0  0  0  0  0
   -5.3519    2.7464   -0.0000 N   0  0  0  0  0  0  0  0  0  0  0  0
   -6.2322    1.5492   -0.0000 C   0  0  0  0  0  0  0  0  0  0  0  0
  1  2  1  0  0  0  0
  1  3  1  0  0  0  0
  2  4  2  0  0  0  0
  2  5  1  0  0  0  0
  4  6  1  0  0  0  0
  5  7  2  0  0  0  0
  6  8  2  0  0  0  0
  6  9  1  0  0  0  0
  8 10  1  0  0  0  0
  9 11  2  0  0  0  0
  7  8  1  0  0  0  0
 10 11  1  0  0  0  0
M  END
>  <MolRegNo>
15252

>  <m>
=

>  <Value>
0

>  <Unit>
nM

>  <Type>
Ki

>  <pValue>
0

>  <Ligand Efficiency>
0

>  <Binding Efficiency>
0

>  <Surface Efficiency>
0

>  <Assay Index>
122805

>  <Assay Category>


>  <Assay Organism>
Homo sapiens

>  <Target ID>
11365

>  <Target Name>
Cytochrome P450 2D6

>  <Target Organism>
Homo sapiens

>  <Target Description>
Target is a single protein chain

>  <Sequence Accession>
P10635

>  <Reference>
J Med Chem 36 (9), 1136-1145 (1993)

>  <Pubmed ID>
8487254

>  <DOI>
10.1021/jm00061a004

$$$$
1367928
Actelion Java MolfileCreator 1.0

 24 27  0  0  0  0  0  0  0  0999 V2000
    0.0000   -0.0000   -0.0000 O   0  0  0  0  0  0  0  0  0  0  0  0
   -1.3447   -0.7502   -0.0000 C   0  0  0  0  0  0  0  0  0  0  0  0
   -0.0142    1.2456   -0.0000 C   0  0  0  0  0  0  0  0  0  0  0  0
   -2.6894    0.0283   -0.0000 C   0  0  0  0  0  0  0  0  0  0  0  0
   -1.3589   -2.2648   -0.0000 C   0  0  0  0  0  0  0  0  0  0  0  0
   -4.0200   -0.7219   -0.0000 C   0  0  0  0  0  0  0  0  0  0  0  0
   -2.6894   -3.0150   -0.0000 C   0  0  0  0  0  0  0  0  0  0  0  0
   -4.0341   -2.2365   -0.0000 C   0  0  0  0  0  0  0  0  0  0  0  0
   -5.3647    0.0566   -0.0000 C   0  0  0  0  0  0  0  0  0  0  0  0
   -5.3647   -2.9867   -0.0000 N   0  0  0  0  0  0  0  0  0  0  0  0
   -6.7236   -0.6936   -0.0000 C   0  0  0  0  0  0  0  0  0  0  0  0
   -5.3789    1.5995   -0.0000 C   0  0  0  0  0  0  0  0  0  0  0  0
   -6.7236   -2.2082   -0.0000 C   0  0  0  0  0  0  0  0  0  0  0  0
   -6.4546    2.2223   -0.0000 O   0  0  0  0  0  0  0  0  0  0  0  0
   -4.0625    2.3780   -0.0000 C   0  0  0  0  0  0  0  0  0  0  0  0
   -4.0625    3.9068   -0.0000 N   0  0  0  0  0  0  0  0  0  0  0  0
   -2.6894    1.5995   -0.0000 C   0  0  0  0  0  0  0  0  0  0  0  0
   -2.7602    4.7136   -0.0000 C   0  0  0  0  0  0  0  0  0  0  0  0
   -2.7602    4.0200   -0.0000 C   0  0  0  0  0  0  0  0  0  0  0  0
   -1.4013    2.3780   -0.0000 C   0  0  0  0  0  0  0  0  0  0  0  0
   -1.3872    3.9351   -0.0000 C   0  0  0  0  0  0  0  0  0  0  0  0
   -2.7461    2.2365   -0.0000 C   0  0  0  0  0  0  0  0  0  0  0  0
   -0.0849    4.7277   -0.0000 C   0  0  0  0  0  0  0  0  0  0  0  0
   -0.1132    5.9734   -0.0000 C   0  0  0  0  0  0  0  0  0  0  0  0
  1  2  1  0  0  0  0
  1  3  1  0  0  0  0
  2  4  2  0  0  0  0
  2  5  1  0  0  0  0
  4  6  1  0  0  0  0
  5  7  2  0  0  0  0
  6  8  1  0  0  0  0
  6  9  2  0  0  0  0
  8 10  2  0  0  0  0
  9 11  1  0  0  0  0
  9 12  1  0  0  0  0
 10 13  1  0  0  0  0
 12 14  1  1  0  0  0
 12 15  1  0  0  0  0
 15 16  1  0  0  0  0
 15 17  1  0  0  0  0
 16 18  1  0  0  0  0
 16 19  1  0  0  0  0
 17 20  1  0  0  0  0
 18 21  1  0  0  0  0
 19 22  1  0  0  0  0
 21 23  1  0  0  0  0
 23 24  1  0  0  0  0
  7  8  1  0  0  0  0
 11 13  2  0  0  0  0
 20 21  1  0  0  0  0
 20 22  1  0  0  0  0
M  END
>  <MolRegNo>
1367928

>  <m>
=

>  <Value>
66

>  <Unit>
nM

>  <Type>
Ki

>  <pValue>
7.18

>  <Ligand Efficiency>
0

>  <Binding Efficiency>
0

>  <Surface Efficiency>
0

>  <Assay Index>
122804

>  <Assay Category>


>  <Assay Organism>
Homo sapiens

>  <Target ID>
11365

>  <Target Name>
Cytochrome P450 2D6

>  <Target Organism>
Homo sapiens

>  <Target Description>
Target is a single protein chain

>  <Sequence Accession>
P10635

>  <Reference>
J Med Chem 36 (9), 1136-1145 (1993)

>  <Pubmed ID>
8487254

>  <DOI>
10.1021/jm00061a004

$$$$
1941319
Actelion Java MolfileCreator 1.0

 26 30  0  0  1  0  0  0  0  0999 V2000
    0.0000   -0.0000   -0.0000 O   0  0  0  0  0  0  0  0  0  0  0  0
    1.4639    0.1547   -0.0000 C   0  0  0  0  0  0  0  0  0  0  0  0
    2.3208   -1.0354   -0.0000 O   0  0  0  0  0  0  0  0  0  0  0  0
    2.0590    1.5234   -0.0000 C   0  0  0  0  0  0  0  0  0  0  0  0
    1.6900   -2.3922   -0.0000 C   0  0  0  0  0  0  0  0  0  0  0  0
    3.5585    1.6900   -0.0000 C   0  0  0  0  0  0  0  0  0  0  0  0
    1.1782    2.7492   -0.0000 C   0  0  0  0  0  0  0  0  0  0  0  0
    4.1536    3.0825   -0.0000 O   0  0  0  0  0  0  0  0  0  0  0  0
    1.7852    4.1298   -0.0000 C   0  0  0  0  0  0  0  0  0  0  0  0
   -0.3094    2.6183   -0.0000 C   0  0  0  0  0  0  0  0  0  0  0  0
    3.2610    4.3083   -0.0000 C   0  0  0  0  0  0  0  0  0  0  0  0
    0.8926    5.3676   -0.0000 C   0  0  0  0  0  0  0  0  0  0  0  0
   -1.2020    3.8323   -0.0000 C   0  0  0  0  0  0  0  0  0  0  0  0
    3.8561    5.6770   -0.0000 C   0  0  0  0  0  0  0  0  0  0  0  0
   -0.6070    5.2128   -0.0000 N   0  0  0  0  0  0  0  0  0  0  0  0
   -2.6778    3.6895   -0.0000 C   0  0  0  0  0  0  0  0  0  0  0  0
   -1.4996    6.4268   -0.0000 C   0  0  0  0  0  0  0  0  0  0  0  0
   -3.5704    2.4993   -0.0000 N   0  0  0  0  0  0  0  0  0  0  0  0
   -3.5823    4.9153   -0.0000 C   0  0  0  0  0  0  0  0  0  0  0  0
   -2.9992    6.2840   -0.0000 C   0  0  0  0  0  0  0  0  0  0  0  0
   -4.9986    2.9635   -0.0000 C   0  0  0  0  0  0  0  0  0  0  0  0
   -5.0105    4.4512   -0.0000 C   0  0  0  0  0  0  0  0  0  0  0  0
   -6.3078    2.2137   -0.0000 C   0  0  0  0  0  0  0  0  0  0  0  0
   -6.3197    5.2128   -0.0000 C   0  0  0  0  0  0  0  0  0  0  0  0
   -7.6050    2.9754   -0.0000 C   0  0  0  0  0  0  0  0  0  0  0  0
   -7.6169    4.4631   -0.0000 C   0  0  0  0  0  0  0  0  0  0  0  0
  1  2  2  0  0  0  0
  2  3  1  0  0  0  0
  2  4  1  0  0  0  0
  3  5  1  0  0  0  0
  4  6  2  0  0  0  0
  4  7  1  0  0  0  0
  6  8  1  0  0  0  0
  7  9  1  0  0  0  0
  7 10  1  1  0  0  0
  8 11  1  0  0  0  0
  9 12  1  6  0  0  0
 10 13  1  0  0  0  0
 11 14  1  6  0  0  0
 12 15  1  0  0  0  0
 13 16  1  0  0  0  0
 15 17  1  0  0  0  0
 16 18  1  0  0  0  0
 16 19  2  0  0  0  0
 17 20  2  0  0  0  0
 18 21  1  0  0  0  0
 19 22  1  0  0  0  0
 21 23  1  0  0  0  0
 22 24  1  0  0  0  0
 23 25  2  0  0  0  0
 24 26  2  0  0  0  0
  9 11  1  0  0  0  0
 13 15  2  0  0  0  0
 19 20  1  0  0  0  0
 21 22  2  0  0  0  0
 25 26  1  0  0  0  0
M  CHG  1  15   1
M  END
>  <MolRegNo>
1941319

>  <m>
=

>  <Value>
2200

>  <Unit>
nM

>  <Type>
Ki

>  <pValue>
5.66

>  <Ligand Efficiency>
0

>  <Binding Efficiency>
0

>  <Surface Efficiency>
0

>  <Assay Index>
122804

>  <Assay Category>


>  <Assay Organism>
Homo sapiens

>  <Target ID>
11365

>  <Target Name>
Cytochrome P450 2D6

>  <Target Organism>
Homo sapiens

>  <Target Description>
Target is a single protein chain

>  <Sequence Accession>
P10635

>  <Reference>
J Med Chem 36 (9), 1136-1145 (1993)

>  <Pubmed ID>
8487254

>  <DOI>
10.1021/jm00061a004

$$$$
14833
Actelion Java MolfileCreator 1.0

 14 15  0  0  0  0  0  0  0  0999 V2000
    0.0000   -0.0000   -0.0000 O   0  0  0  0  0  0  0  0  0  0  0  0
    1.2841   -0.7371   -0.0000 C   0  0  0  0  0  0  0  0  0  0  0  0
   -0.0119    1.5100   -0.0000 C   0  0  0  0  0  0  0  0  0  0  0  0
    2.5681    0.0238   -0.0000 C   0  0  0  0  0  0  0  0  0  0  0  0
    1.2722   -2.2352   -0.0000 C   0  0  0  0  0  0  0  0  0  0  0  0
    3.8641   -0.7134   -0.0000 C   0  0  0  0  0  0  0  0  0  0  0  0
    2.5562   -2.9724   -0.0000 C   0  0  0  0  0  0  0  0  0  0  0  0
    3.8522   -2.2114   -0.0000 C   0  0  0  0  0  0  0  0  0  0  0  0
    5.2908   -0.2259   -0.0000 C   0  0  0  0  0  0  0  0  0  0  0  0
    5.2789   -2.6751   -0.0000 N   0  0  0  0  0  0  0  0  0  0  0  0
    6.1706   -1.4386   -0.0000 C   0  0  0  0  0  0  0  0  0  0  0  0
    5.7426    1.2246   -0.0000 C   0  0  0  0  0  0  0  0  0  0  0  0
    7.2050    1.5575   -0.0000 C   0  0  0  0  0  0  0  0  0  0  0  0
    7.6568    2.9842   -0.0000 O   0  0  0  0  0  0  0  0  0  0  0  0
  1  2  1  0  0  0  0
  1  3  1  0  0  0  0
  2  4  2  0  0  0  0
  2  5  1  0  0  0  0
  4  6  1  0  0  0  0
  5  7  2  0  0  0  0
  6  8  2  0  0  0  0
  6  9  1  0  0  0  0
  8 10  1  0  0  0  0
  9 11  2  0  0  0  0
  9 12  1  0  0  0  0
 12 13  1  0  0  0  0
 13 14  1  0  0  0  0
  7  8  1  0  0  0  0
 10 11  1  0  0  0  0
M  END
>  <MolRegNo>
14833

>  <m>
=

>  <Value>
1.0e5

>  <Unit>
nM

>  <Type>
Ki

>  <pValue>
4

>  <Ligand Efficiency>
0

>  <Binding Efficiency>
0

>  <Surface Efficiency>
0

>  <Assay Index>
122804

>  <Assay Category>


>  <Assay Organism>
Homo sapiens

>  <Target ID>
11365

>  <Target Name>
Cytochrome P450 2D6

>  <Target Organism>
Homo sapiens

>  <Target Description>
Target is a single protein chain

>  <Sequence Accession>
P10635

>  <Reference>
J Med Chem 36 (9), 1136-1145 (1993)

>  <Pubmed ID>
8487254

>  <DOI>
10.1021/jm00061a004

$$$$
255947
Actelion Java MolfileCreator 1.0

 24 27  0  0  0  0  0  0  0  0999 V2000
    0.0000   -0.0000   -0.0000 O   0  0  0  0  0  0  0  0  0  0  0  0
    1.2532   -0.7142   -0.0000 C   0  0  0  0  0  0  0  0  0  0  0  0
   -1.2801   -0.7142   -0.0000 C   0  0  0  0  0  0  0  0  0  0  0  0
    2.5063    0.0269   -0.0000 C   0  0  0  0  0  0  0  0  0  0  0  0
    1.2397   -2.1560   -0.0000 C   0  0  0  0  0  0  0  0  0  0  0  0
    3.7595   -0.6872   -0.0000 C   0  0  0  0  0  0  0  0  0  0  0  0
    2.4929   -2.8702   -0.0000 C   0  0  0  0  0  0  0  0  0  0  0  0
    3.7460   -2.1290   -0.0000 C   0  0  0  0  0  0  0  0  0  0  0  0
    5.0127    0.0539   -0.0000 C   0  0  0  0  0  0  0  0  0  0  0  0
    4.9992   -2.8432   -0.0000 N   0  0  0  0  0  0  0  0  0  0  0  0
    6.2658   -0.6603   -0.0000 C   0  0  0  0  0  0  0  0  0  0  0  0
    4.9992    1.5227   -0.0000 C   0  0  0  0  0  0  0  0  0  0  0  0
    6.2524   -2.1021   -0.0000 C   0  0  0  0  0  0  0  0  0  0  0  0
    3.5709    1.1588   -0.0000 O   0  0  0  0  0  0  0  0  0  0  0  0
    6.2524    2.2638   -0.0000 C   0  0  0  0  0  0  0  0  0  0  0  0
    7.5055    3.0049   -0.0000 N   0  0  0  0  0  0  0  0  0  0  0  0
    7.2765    1.2397   -0.0000 C   0  0  0  0  0  0  0  0  0  0  0  0
    9.2034    2.8702   -0.0000 C   0  0  0  0  0  0  0  0  0  0  0  0
    7.4921    4.4737   -0.0000 C   0  0  0  0  0  0  0  0  0  0  0  0
    8.5296    1.9808   -0.0000 C   0  0  0  0  0  0  0  0  0  0  0  0
    9.9176    1.6170   -0.0000 C   0  0  0  0  0  0  0  0  0  0  0  0
    8.9339    4.4872   -0.0000 C   0  0  0  0  0  0  0  0  0  0  0  0
    9.9041    0.1752   -0.0000 C   0  0  0  0  0  0  0  0  0  0  0  0
   11.1572   -0.5390   -0.0000 C   0  0  0  0  0  0  0  0  0  0  0  0
  1  2  1  0  0  0  0
  1  3  1  0  0  0  0
  2  4  2  0  0  0  0
  2  5  1  0  0  0  0
  4  6  1  0  0  0  0
  5  7  2  0  0  0  0
  6  8  1  0  0  0  0
  6  9  2  0  0  0  0
  8 10  2  0  0  0  0
  9 11  1  0  0  0  0
  9 12  1  0  0  0  0
 10 13  1  0  0  0  0
 12 14  1  1  0  0  0
 12 15  1  0  0  0  0
 15 16  1  1  0  0  0
 15 17  1  0  0  0  0
 16 18  1  0  0  0  0
 16 19  1  0  0  0  0
 20 17  1  6  0  0  0
 18 21  1  0  0  0  0
 19 22  1  0  0  0  0
 21 23  1  6  0  0  0
 23 24  2  0  0  0  0
  7  8  1  0  0  0  0
 11 13  2  0  0  0  0
 20 21  1  0  0  0  0
 20 22  1  0  0  0  0
M  END
>  <MolRegNo>
255947

>  <m>
=

>  <Value>
21000

>  <Unit>
nM

>  <Type>
Ki

>  <pValue>
4.68

>  <Ligand Efficiency>
0

>  <Binding Efficiency>
0

>  <Surface Efficiency>
0

>  <Assay Index>
122804

>  <Assay Category>


>  <Assay Organism>
Homo sapiens

>  <Target ID>
11365

>  <Target Name>
Cytochrome P450 2D6

>  <Target Organism>
Homo sapiens

>  <Target Description>
Target is a single protein chain

>  <Sequence Accession>
P10635

>  <Reference>
J Med Chem 36 (9), 1136-1145 (1993)

>  <Pubmed ID>
8487254

>  <DOI>
10.1021/jm00061a004

$$$$
15015
Actelion Java MolfileCreator 1.0

 21 25  0  0  0  0  0  0  0  0999 V2000
    0.0000   -0.0000   -0.0000 N   0  0  0  0  0  0  0  0  0  0  0  0
   -0.6391   -1.3611   -0.0000 C   0  0  0  0  0  0  0  0  0  0  0  0
   -0.9113    1.2191   -0.0000 C   0  0  0  0  0  0  0  0  0  0  0  0
    1.4795    0.1775   -0.0000 C   0  0  0  0  0  0  0  0  0  0  0  0
   -2.1186   -1.5031   -0.0000 C   0  0  0  0  0  0  0  0  0  0  0  0
    0.2367   -2.5565   -0.0000 C   0  0  0  0  0  0  0  0  0  0  0  0
   -2.4145    1.0770   -0.0000 C   0  0  0  0  0  0  0  0  0  0  0  0
    2.3553   -1.0415   -0.0000 C   0  0  0  0  0  0  0  0  0  0  0  0
   -2.9944   -2.6985   -0.0000 N   0  0  0  0  0  0  0  0  0  0  0  0
   -3.0181   -0.2722   -0.0000 C   0  0  0  0  0  0  0  0  0  0  0  0
    1.7162   -2.4026   -0.0000 C   0  0  0  0  0  0  0  0  0  0  0  0
    3.8348   -0.8758   -0.0000 C   0  0  0  0  0  0  0  0  0  0  0  0
   -4.4384   -2.2369   -0.0000 C   0  0  0  0  0  0  0  0  0  0  0  0
   -4.4620   -0.7338   -0.0000 C   0  0  0  0  0  0  0  0  0  0  0  0
    2.5802   -3.5980   -0.0000 C   0  0  0  0  0  0  0  0  0  0  0  0
    4.7106   -2.0831   -0.0000 C   0  0  0  0  0  0  0  0  0  0  0  0
   -5.7521   -2.9826   -0.0000 C   0  0  0  0  0  0  0  0  0  0  0  0
   -5.7640    0.0237   -0.0000 C   0  0  0  0  0  0  0  0  0  0  0  0
    4.0715   -3.4560   -0.0000 C   0  0  0  0  0  0  0  0  0  0  0  0
   -7.0540   -2.2251   -0.0000 C   0  0  0  0  0  0  0  0  0  0  0  0
   -7.0659   -0.7220   -0.0000 C   0  0  0  0  0  0  0  0  0  0  0  0
  1  2  2  0  0  0  0
  1  3  1  0  0  0  0
  1  4  1  0  0  0  0
  2  5  1  0  0  0  0
  2  6  1  0  0  0  0
  3  7  2  0  0  0  0
  4  8  1  0  0  0  0
  5  9  1  0  0  0  0
  5 10  2  0  0  0  0
  6 11  1  0  0  0  0
  8 12  1  0  0  0  0
  9 13  1  0  0  0  0
 10 14  1  0  0  0  0
 11 15  1  0  0  0  0
 12 16  1  0  0  0  0
 13 17  1  0  0  0  0
 14 18  1  0  0  0  0
 15 19  1  0  0  0  0
 17 20  2  0  0  0  0
 18 21  2  0  0  0  0
  7 10  1  0  0  0  0
  8 11  1  0  0  0  0
 13 14  2  0  0  0  0
 16 19  1  0  0  0  0
 20 21  1  0  0  0  0
M  CHG  2   1   1   9  -1
M  END
>  <MolRegNo>
15015

>  <m>
=

>  <Value>
9700

>  <Unit>
nM

>  <Type>
Ki

>  <pValue>
5.01

>  <Ligand Efficiency>
0

>  <Binding Efficiency>
0

>  <Surface Efficiency>
0

>  <Assay Index>
122804

>  <Assay Category>


>  <Assay Organism>
Homo sapiens

>  <Target ID>
11365

>  <Target Name>
Cytochrome P450 2D6

>  <Target Organism>
Homo sapiens

>  <Target Description>
Target is a single protein chain

>  <Sequence Accession>
P10635

>  <Reference>
J Med Chem 36 (9), 1136-1145 (1993)

>  <Pubmed ID>
8487254

>  <DOI>
10.1021/jm00061a004

$$$$
1363840
Actelion Java MolfileCreator 1.0

 26 30  0  0  1  0  0  0  0  0999 V2000
    0.0000   -0.0000   -0.0000 O   0  0  0  0  0  0  0  0  0  0  0  0
    1.4787    0.1656   -0.0000 C   0  0  0  0  0  0  0  0  0  0  0  0
    2.3187   -1.0410   -0.0000 O   0  0  0  0  0  0  0  0  0  0  0  0
    2.0702    1.5261   -0.0000 C   0  0  0  0  0  0  0  0  0  0  0  0
    1.7035   -2.3778   -0.0000 C   0  0  0  0  0  0  0  0  0  0  0  0
    3.5608    1.6680   -0.0000 C   0  0  0  0  0  0  0  0  0  0  0  0
    1.1830    2.7564   -0.0000 C   0  0  0  0  0  0  0  0  0  0  0  0
    4.1641    3.0521   -0.0000 O   0  0  0  0  0  0  0  0  0  0  0  0
    1.7981    4.1286   -0.0000 C   0  0  0  0  0  0  0  0  0  0  0  0
   -0.2957    2.6144   -0.0000 C   0  0  0  0  0  0  0  0  0  0  0  0
    3.2769    4.2943   -0.0000 C   0  0  0  0  0  0  0  0  0  0  0  0
    0.9109    5.3708   -0.0000 C   0  0  0  0  0  0  0  0  0  0  0  0
   -1.1830    3.8447   -0.0000 C   0  0  0  0  0  0  0  0  0  0  0  0
    3.8684    5.6784   -0.0000 C   0  0  0  0  0  0  0  0  0  0  0  0
   -0.5915    5.2052   -0.0000 N   0  0  0  0  0  0  0  0  0  0  0  0
   -2.6617    3.7028   -0.0000 C   0  0  0  0  0  0  0  0  0  0  0  0
   -1.4906    6.4236   -0.0000 C   0  0  0  0  0  0  0  0  0  0  0  0
   -3.5490    2.4961   -0.0000 N   0  0  0  0  0  0  0  0  0  0  0  0
   -3.5726    4.9094   -0.0000 C   0  0  0  0  0  0  0  0  0  0  0  0
   -2.9930    6.2817   -0.0000 C   0  0  0  0  0  0  0  0  0  0  0  0
   -4.9804    2.9575   -0.0000 C   0  0  0  0  0  0  0  0  0  0  0  0
   -4.9922    4.4480   -0.0000 C   0  0  0  0  0  0  0  0  0  0  0  0
   -6.3053    2.2240   -0.0000 C   0  0  0  0  0  0  0  0  0  0  0  0
   -6.3053    5.2052   -0.0000 C   0  0  0  0  0  0  0  0  0  0  0  0
   -7.6066    2.9811   -0.0000 C   0  0  0  0  0  0  0  0  0  0  0  0
   -7.6066    4.4717   -0.0000 C   0  0  0  0  0  0  0  0  0  0  0  0
  1  2  2  0  0  0  0
  2  3  1  0  0  0  0
  2  4  1  0  0  0  0
  3  5  1  0  0  0  0
  4  6  2  0  0  0  0
  4  7  1  0  0  0  0
  6  8  1  0  0  0  0
  7  9  1  0  0  0  0
  7 10  1  1  0  0  0
  8 11  1  0  0  0  0
  9 12  1  6  0  0  0
 10 13  1  0  0  0  0
 11 14  1  1  0  0  0
 12 15  1  0  0  0  0
 13 16  1  0  0  0  0
 15 17  1  0  0  0  0
 16 18  1  0  0  0  0
 16 19  2  0  0  0  0
 17 20  1  0  0  0  0
 18 21  1  0  0  0  0
 19 22  1  0  0  0  0
 21 23  1  0  0  0  0
 22 24  1  0  0  0  0
 23 25  2  0  0  0  0
 24 26  2  0  0  0  0
  9 11  1  0  0  0  0
 13 15  1  1  0  0  0
 19 20  1  0  0  0  0
 21 22  2  0  0  0  0
 25 26  1  0  0  0  0
M  END
>  <MolRegNo>
1363840

>  <m>
=

>  <Value>
17

>  <Unit>
nM

>  <Type>
Ki

>  <pValue>
7.77

>  <Ligand Efficiency>
0

>  <Binding Efficiency>
0

>  <Surface Efficiency>
0

>  <Assay Index>
122804

>  <Assay Category>


>  <Assay Organism>
Homo sapiens

>  <Target ID>
11365

>  <Target Name>
Cytochrome P450 2D6

>  <Target Organism>
Homo sapiens

>  <Target Description>
Target is a single protein chain

>  <Sequence Accession>
P10635

>  <Reference>
J Med Chem 36 (9), 1136-1145 (1993)

>  <Pubmed ID>
8487254

>  <DOI>
10.1021/jm00061a004

$$$$
15253
Actelion Java MolfileCreator 1.0

 24 28  0  0  1  0  0  0  0  0999 V2000
    0.0000   -0.0000   -0.0000 O   0  0  0  0  0  0  0  0  0  0  0  0
   -0.6178   -1.3663   -0.0000 C   0  0  0  0  0  0  0  0  0  0  0  0
   -0.8910    1.2356   -0.0000 C   0  0  0  0  0  0  0  0  0  0  0  0
   -2.1385   -1.4851   -0.0000 C   0  0  0  0  0  0  0  0  0  0  0  0
   -2.3880    1.0930   -0.0000 C   0  0  0  0  0  0  0  0  0  0  0  0
   -0.2970    2.6137   -0.0000 C   0  0  0  0  0  0  0  0  0  0  0  0
   -3.0295   -0.2614   -0.0000 C   0  0  0  0  0  0  0  0  0  0  0  0
   -2.7563   -2.8276   -0.0000 C   0  0  0  0  0  0  0  0  0  0  0  0
   -3.2790    2.3405   -0.0000 C   0  0  0  0  0  0  0  0  0  0  0  0
   -4.5027   -0.4039   -0.0000 C   0  0  0  0  0  0  0  0  0  0  0  0
   -1.9128   -4.0275   -0.0000 O   0  0  0  0  0  0  0  0  0  0  0  0
   -4.7760    2.1741   -0.0000 N   0  0  0  0  0  0  0  0  0  0  0  0
   -5.3938    0.8198   -0.0000 C   0  0  0  0  0  0  0  0  0  0  0  0
   -5.6670    3.3978   -0.0000 C   0  0  0  0  0  0  0  0  0  0  0  0
   -6.8670    0.6772   -0.0000 C   0  0  0  0  0  0  0  0  0  0  0  0
   -7.1640    3.2553   -0.0000 C   0  0  0  0  0  0  0  0  0  0  0  0
   -7.7580   -0.5227   -0.0000 N   0  0  0  0  0  0  0  0  0  0  0  0
   -7.7818    1.8771   -0.0000 C   0  0  0  0  0  0  0  0  0  0  0  0
   -9.1837   -0.0594   -0.0000 C   0  0  0  0  0  0  0  0  0  0  0  0
   -9.1955    1.4138   -0.0000 C   0  0  0  0  0  0  0  0  0  0  0  0
  -10.5024   -0.7960   -0.0000 C   0  0  0  0  0  0  0  0  0  0  0  0
  -10.5143    2.1741   -0.0000 C   0  0  0  0  0  0  0  0  0  0  0  0
  -11.7974   -0.0356   -0.0000 C   0  0  0  0  0  0  0  0  0  0  0  0
  -11.8093    1.4375   -0.0000 C   0  0  0  0  0  0  0  0  0  0  0  0
  1  2  1  0  0  0  0
  1  3  1  0  0  0  0
  2  4  2  0  0  0  0
  3  5  1  0  0  0  0
  3  6  1  0  0  0  0
  4  7  1  0  0  0  0
  4  8  1  0  0  0  0
  5  9  1  0  0  0  0
  7 10  1  1  0  0  0
  8 11  1  0  0  0  0
  9 12  1  0  0  0  0
 10 13  1  0  0  0  0
 12 14  1  0  0  0  0
 13 15  1  0  0  0  0
 14 16  1  0  0  0  0
 15 17  1  0  0  0  0
 15 18  2  0  0  0  0
 17 19  1  0  0  0  0
 18 20  1  0  0  0  0
 19 21  1  0  0  0  0
 20 22  1  0  0  0  0
 21 23  2  0  0  0  0
 22 24  2  0  0  0  0
  5  7  1  0  0  0  0
 13 12  1  1  0  0  0
 16 18  1  0  0  0  0
 19 20  2  0  0  0  0
 23 24  1  0  0  0  0
M  END
>  <MolRegNo>
15253

>  <m>
=

>  <Value>
1100

>  <Unit>
nM

>  <Type>
Ki

>  <pValue>
5.96

>  <Ligand Efficiency>
0

>  <Binding Efficiency>
0

>  <Surface Efficiency>
0

>  <Assay Index>
122804

>  <Assay Category>


>  <Assay Organism>
Homo sapiens

>  <Target ID>
11365

>  <Target Name>
Cytochrome P450 2D6

>  <Target Organism>
Homo sapiens

>  <Target Description>
Target is a single protein chain

>  <Sequence Accession>
P10635

>  <Reference>
J Med Chem 36 (9), 1136-1145 (1993)

>  <Pubmed ID>
8487254

>  <DOI>
10.1021/jm00061a004

$$$$
1798188
Actelion Java MolfileCreator 1.0

 25 29  0  0  1  0  0  0  0  0999 V2000
    0.0000   -0.0000   -0.0000 O   0  0  0  0  0  0  0  0  0  0  0  0
    1.4791    0.1657   -0.0000 C   0  0  0  0  0  0  0  0  0  0  0  0
    2.3192   -1.0413   -0.0000 O   0  0  0  0  0  0  0  0  0  0  0  0
    2.0707    1.5264   -0.0000 C   0  0  0  0  0  0  0  0  0  0  0  0
    3.5616    1.6684   -0.0000 C   0  0  0  0  0  0  0  0  0  0  0  0
    1.1832    2.7570   -0.0000 C   0  0  0  0  0  0  0  0  0  0  0  0
    4.4135    0.4733   -0.0000 O   0  0  0  0  0  0  0  0  0  0  0  0
    4.1650    3.0528   -0.0000 C   0  0  0  0  0  0  0  0  0  0  0  0
    1.7985    4.1295   -0.0000 C   0  0  0  0  0  0  0  0  0  0  0  0
   -0.2958    2.6150   -0.0000 C   0  0  0  0  0  0  0  0  0  0  0  0
    3.2776    4.2952   -0.0000 C   0  0  0  0  0  0  0  0  0  0  0  0
    0.9111    5.3719   -0.0000 C   0  0  0  0  0  0  0  0  0  0  0  0
   -1.1832    3.8456   -0.0000 C   0  0  0  0  0  0  0  0  0  0  0  0
   -0.5916    5.2063   -0.0000 N   0  0  0  0  0  0  0  0  0  0  0  0
   -2.6623    3.7036   -0.0000 C   0  0  0  0  0  0  0  0  0  0  0  0
   -1.4909    6.4250   -0.0000 C   0  0  0  0  0  0  0  0  0  0  0  0
   -3.5497    2.4967   -0.0000 N   0  0  0  0  0  0  0  0  0  0  0  0
   -3.5734    4.9105   -0.0000 C   0  0  0  0  0  0  0  0  0  0  0  0
   -2.9936    6.2830   -0.0000 C   0  0  0  0  0  0  0  0  0  0  0  0
   -4.9815    2.9581   -0.0000 C   0  0  0  0  0  0  0  0  0  0  0  0
   -4.9933    4.4490   -0.0000 C   0  0  0  0  0  0  0  0  0  0  0  0
   -6.3067    2.2245   -0.0000 C   0  0  0  0  0  0  0  0  0  0  0  0
   -6.3067    5.2063   -0.0000 C   0  0  0  0  0  0  0  0  0  0  0  0
   -7.6083    2.9818   -0.0000 C   0  0  0  0  0  0  0  0  0  0  0  0
   -7.6083    4.4727   -0.0000 C   0  0  0  0  0  0  0  0  0  0  0  0
  1  2  2  0  0  0  0
  2  3  1  0  0  0  0
  4  2  1  1  0  0  0
  4  5  1  0  0  0  0
  4  6  1  0  0  0  0
  5  7  1  1  0  0  0
  5  8  1  0  0  0  0
  6  9  1  0  0  0  0
  6 10  1  1  0  0  0
  8 11  1  0  0  0  0
  9 12  1  6  0  0  0
 10 13  1  0  0  0  0
 12 14  1  0  0  0  0
 13 15  1  0  0  0  0
 14 16  1  0  0  0  0
 15 17  1  0  0  0  0
 15 18  2  0  0  0  0
 16 19  1  0  0  0  0
 17 20  1  0  0  0  0
 18 21  1  0  0  0  0
 20 22  1  0  0  0  0
 21 23  1  0  0  0  0
 22 24  2  0  0  0  0
 23 25  2  0  0  0  0
  9 11  1  0  0  0  0
 13 14  1  1  0  0  0
 18 19  1  0  0  0  0
 20 21  2  0  0  0  0
 24 25  1  0  0  0  0
M  END
>  <MolRegNo>
1798188

>  <m>
=

>  <Value>
6300

>  <Unit>
nM

>  <Type>
Ki

>  <pValue>
5.2

>  <Ligand Efficiency>
0

>  <Binding Efficiency>
0

>  <Surface Efficiency>
0

>  <Assay Index>
122804

>  <Assay Category>


>  <Assay Organism>
Homo sapiens

>  <Target ID>
11365

>  <Target Name>
Cytochrome P450 2D6

>  <Target Organism>
Homo sapiens

>  <Target Description>
Target is a single protein chain

>  <Sequence Accession>
P10635

>  <Reference>
J Med Chem 36 (9), 1136-1145 (1993)

>  <Pubmed ID>
8487254

>  <DOI>
10.1021/jm00061a004

$$$$
42381
Actelion Java MolfileCreator 1.0

 26 30  0  0  1  0  0  0  0  0999 V2000
    0.0000   -0.0000   -0.0000 O   0  0  0  0  0  0  0  0  0  0  0  0
   -0.9819    1.1436   -0.0000 C   0  0  0  0  0  0  0  0  0  0  0  0
   -2.4605    0.8779   -0.0000 O   0  0  0  0  0  0  0  0  0  0  0  0
   -0.4967    2.5645   -0.0000 C   0  0  0  0  0  0  0  0  0  0  0  0
   -2.9688   -0.5198   -0.0000 C   0  0  0  0  0  0  0  0  0  0  0  0
    0.9588    2.8532   -0.0000 C   0  0  0  0  0  0  0  0  0  0  0  0
   -1.4786    3.7081   -0.0000 C   0  0  0  0  0  0  0  0  0  0  0  0
    1.9176    1.7327   -0.0000 O   0  0  0  0  0  0  0  0  0  0  0  0
    1.4440    4.2741   -0.0000 C   0  0  0  0  0  0  0  0  0  0  0  0
   -0.9934    5.1289   -0.0000 C   0  0  0  0  0  0  0  0  0  0  0  0
   -2.9572    3.4424   -0.0000 C   0  0  0  0  0  0  0  0  0  0  0  0
    0.4621    5.4177   -0.0000 C   0  0  0  0  0  0  0  0  0  0  0  0
   -1.9753    6.2725   -0.0000 C   0  0  0  0  0  0  0  0  0  0  0  0
   -3.9391    4.5860   -0.0000 C   0  0  0  0  0  0  0  0  0  0  0  0
   -3.4539    6.0068   -0.0000 N   0  0  0  0  0  0  0  0  0  0  0  0
   -5.4177    4.3203   -0.0000 C   0  0  0  0  0  0  0  0  0  0  0  0
   -4.4358    7.1504   -0.0000 C   0  0  0  0  0  0  0  0  0  0  0  0
   -6.2032    3.0496   -0.0000 N   0  0  0  0  0  0  0  0  0  0  0  0
   -6.3996    5.4639   -0.0000 C   0  0  0  0  0  0  0  0  0  0  0  0
   -5.9144    6.8848   -0.0000 C   0  0  0  0  0  0  0  0  0  0  0  0
   -7.6703    3.4077   -0.0000 C   0  0  0  0  0  0  0  0  0  0  0  0
   -7.7858    4.8979   -0.0000 C   0  0  0  0  0  0  0  0  0  0  0  0
   -8.9063    2.5645   -0.0000 C   0  0  0  0  0  0  0  0  0  0  0  0
   -9.1489    5.5448   -0.0000 C   0  0  0  0  0  0  0  0  0  0  0  0
  -10.2694    3.2113   -0.0000 C   0  0  0  0  0  0  0  0  0  0  0  0
  -10.3849    4.7015   -0.0000 C   0  0  0  0  0  0  0  0  0  0  0  0
  1  2  2  0  0  0  0
  2  3  1  0  0  0  0
  4  2  1  1  0  0  0
  3  5  1  0  0  0  0
  4  6  1  0  0  0  0
  4  7  1  0  0  0  0
  6  8  1  6  0  0  0
  6  9  1  0  0  0  0
  7 10  1  0  0  0  0
  7 11  1  1  0  0  0
  9 12  1  0  0  0  0
 10 13  1  6  0  0  0
 11 14  1  0  0  0  0
 13 15  1  0  0  0  0
 14 16  1  0  0  0  0
 15 17  1  0  0  0  0
 16 18  1  0  0  0  0
 16 19  2  0  0  0  0
 17 20  1  0  0  0  0
 18 21  1  0  0  0  0
 19 22  1  0  0  0  0
 21 23  1  0  0  0  0
 22 24  1  0  0  0  0
 23 25  2  0  0  0  0
 24 26  2  0  0  0  0
 10 12  1  0  0  0  0
 14 15  1  1  0  0  0
 19 20  1  0  0  0  0
 21 22  2  0  0  0  0
 25 26  1  0  0  0  0
M  END
>  <MolRegNo>
42381

>  <m>
=

>  <Value>
80

>  <Unit>
nM

>  <Type>
Ki

>  <pValue>
7.1

>  <Ligand Efficiency>
0

>  <Binding Efficiency>
0

>  <Surface Efficiency>
0

>  <Assay Index>
122804

>  <Assay Category>


>  <Assay Organism>
Homo sapiens

>  <Target ID>
11365

>  <Target Name>
Cytochrome P450 2D6

>  <Target Organism>
Homo sapiens

>  <Target Description>
Target is a single protein chain

>  <Sequence Accession>
P10635

>  <Reference>
J Med Chem 36 (9), 1136-1145 (1993)

>  <Pubmed ID>
8487254

>  <DOI>
10.1021/jm00061a004

$$$$
522253
Actelion Java MolfileCreator 1.0

 26 30  0  0  0  0  0  0  0  0999 V2000
    0.0000   -0.0000   -0.0000 O   0  0  0  0  0  0  0  0  0  0  0  0
    1.4814   -0.0593   -0.0000 C   0  0  0  0  0  0  0  0  0  0  0  0
    2.1569   -1.3747   -0.0000 O   0  0  0  0  0  0  0  0  0  0  0  0
    2.2754    1.2088   -0.0000 C   0  0  0  0  0  0  0  0  0  0  0  0
    1.3392   -2.6191   -0.0000 C   0  0  0  0  0  0  0  0  0  0  0  0
    3.7450    1.1496   -0.0000 C   0  0  0  0  0  0  0  0  0  0  0  0
    1.5881    2.5362   -0.0000 C   0  0  0  0  0  0  0  0  0  0  0  0
    4.5390    2.4176   -0.0000 O   0  0  0  0  0  0  0  0  0  0  0  0
    2.3821    3.8042   -0.0000 C   0  0  0  0  0  0  0  0  0  0  0  0
    0.0830    2.6191   -0.0000 C   0  0  0  0  0  0  0  0  0  0  0  0
    3.8516    3.7568   -0.0000 C   0  0  0  0  0  0  0  0  0  0  0  0
    1.6829    5.1434   -0.0000 C   0  0  0  0  0  0  0  0  0  0  0  0
   -0.6163    3.9464   -0.0000 C   0  0  0  0  0  0  0  0  0  0  0  0
    4.5746    5.0723   -0.0000 C   0  0  0  0  0  0  0  0  0  0  0  0
    0.1778    5.2145   -0.0000 N   0  0  0  0  0  0  0  0  0  0  0  0
   -2.1214    4.0175   -0.0000 C   0  0  0  0  0  0  0  0  0  0  0  0
   -0.5333    6.5537   -0.0000 C   0  0  0  0  0  0  0  0  0  0  0  0
   -3.1880    2.9509   -0.0000 N   0  0  0  0  0  0  0  0  0  0  0  0
   -2.8324    5.3567   -0.0000 C   0  0  0  0  0  0  0  0  0  0  0  0
   -2.0503    6.6367   -0.0000 C   0  0  0  0  0  0  0  0  0  0  0  0
   -4.5509    3.6383   -0.0000 C   0  0  0  0  0  0  0  0  0  0  0  0
   -4.3257    5.1197   -0.0000 C   0  0  0  0  0  0  0  0  0  0  0  0
   -5.9611    3.1169   -0.0000 C   0  0  0  0  0  0  0  0  0  0  0  0
   -5.5108    6.0560   -0.0000 C   0  0  0  0  0  0  0  0  0  0  0  0
   -7.1344    4.0650   -0.0000 C   0  0  0  0  0  0  0  0  0  0  0  0
   -6.9092    5.5226   -0.0000 C   0  0  0  0  0  0  0  0  0  0  0  0
  1  2  2  0  0  0  0
  2  3  1  0  0  0  0
  2  4  1  0  0  0  0
  3  5  1  0  0  0  0
  4  6  2  0  0  0  0
  4  7  1  0  0  0  0
  6  8  1  0  0  0  0
  7  9  1  0  0  0  0
  7 10  1  1  0  0  0
  8 11  1  0  0  0  0
  9 12  1  1  0  0  0
 10 13  1  0  0  0  0
 11 14  1  6  0  0  0
 12 15  1  0  0  0  0
 13 16  1  0  0  0  0
 15 17  1  0  0  0  0
 16 18  1  0  0  0  0
 16 19  2  0  0  0  0
 17 20  1  0  0  0  0
 18 21  1  0  0  0  0
 19 22  1  0  0  0  0
 21 23  1  0  0  0  0
 22 24  1  0  0  0  0
 23 25  2  0  0  0  0
 24 26  2  0  0  0  0
  9 11  1  0  0  0  0
 13 15  1  1  0  0  0
 19 20  1  0  0  0  0
 21 22  2  0  0  0  0
 25 26  1  0  0  0  0
M  END
>  <MolRegNo>
522253

>  <m>
=

>  <Value>
1100

>  <Unit>
nM

>  <Type>
Ki

>  <pValue>
5.96

>  <Ligand Efficiency>
0

>  <Binding Efficiency>
0

>  <Surface Efficiency>
0

>  <Assay Index>
122804

>  <Assay Category>


>  <Assay Organism>
Homo sapiens

>  <Target ID>
11365

>  <Target Name>
Cytochrome P450 2D6

>  <Target Organism>
Homo sapiens

>  <Target Description>
Target is a single protein chain

>  <Sequence Accession>
P10635

>  <Reference>
J Med Chem 36 (9), 1136-1145 (1993)

>  <Pubmed ID>
8487254

>  <DOI>
10.1021/jm00061a004

$$$$
322
Actelion Java MolfileCreator 1.0

 16 18  0  0  0  0  0  0  0  0999 V2000
    0.0000   -0.0000   -0.0000 O   0  0  0  0  0  0  0  0  0  0  0  0
    1.4597    0.3204   -0.0000 C   0  0  0  0  0  0  0  0  0  0  0  0
   -0.4747   -1.4241   -0.0000 C   0  0  0  0  0  0  0  0  0  0  0  0
    2.4566   -0.7833   -0.0000 C   0  0  0  0  0  0  0  0  0  0  0  0
    1.9107    1.7683   -0.0000 C   0  0  0  0  0  0  0  0  0  0  0  0
    3.9163   -0.4628   -0.0000 C   0  0  0  0  0  0  0  0  0  0  0  0
    3.3704    2.0887   -0.0000 C   0  0  0  0  0  0  0  0  0  0  0  0
    5.1268   -1.3410   -0.0000 N   0  0  0  0  0  0  0  0  0  0  0  0
    4.3673    0.9850   -0.0000 C   0  0  0  0  0  0  0  0  0  0  0  0
    6.3373   -0.4391   -0.0000 C   0  0  0  0  0  0  0  0  0  0  0  0
    5.8626    0.9969   -0.0000 C   0  0  0  0  0  0  0  0  0  0  0  0
    7.7970   -0.7358   -0.0000 C   0  0  0  0  0  0  0  0  0  0  0  0
    6.8595    2.1243   -0.0000 C   0  0  0  0  0  0  0  0  0  0  0  0
    8.7939    0.3916   -0.0000 N   0  0  0  0  0  0  0  0  0  0  0  0
    8.2480   -2.1599   -0.0000 C   0  0  0  0  0  0  0  0  0  0  0  0
    8.3192    1.8276   -0.0000 C   0  0  0  0  0  0  0  0  0  0  0  0
  1  2  1  0  0  0  0
  1  3  1  0  0  0  0
  2  4  2  0  0  0  0
  2  5  1  0  0  0  0
  4  6  1  0  0  0  0
  5  7  2  0  0  0  0
  6  8  1  0  0  0  0
  6  9  2  0  0  0  0
  8 10  1  0  0  0  0
  9 11  1  0  0  0  0
 10 12  1  0  0  0  0
 11 13  1  0  0  0  0
 12 14  2  0  0  0  0
 12 15  1  0  0  0  0
 13 16  2  0  0  0  0
  7  9  1  0  0  0  0
 10 11  2  0  0  0  0
 14 16  1  0  0  0  0
M  END
>  <MolRegNo>
322

>  <m>
=

>  <Value>
50000

>  <Unit>
nM

>  <Type>
Ki

>  <pValue>
4.3

>  <Ligand Efficiency>
0

>  <Binding Efficiency>
0

>  <Surface Efficiency>
0

>  <Assay Index>
122804

>  <Assay Category>


>  <Assay Organism>
Homo sapiens

>  <Target ID>
11365

>  <Target Name>
Cytochrome P450 2D6

>  <Target Organism>
Homo sapiens

>  <Target Description>
Target is a single protein chain

>  <Sequence Accession>
P10635

>  <Reference>
J Med Chem 36 (9), 1136-1145 (1993)

>  <Pubmed ID>
8487254

>  <DOI>
10.1021/jm00061a004

$$$$
15148
Actelion Java MolfileCreator 1.0

 22 25  0  0  0  0  0  0  0  0999 V2000
    0.0000   -0.0000   -0.0000 O   0  0  0  0  0  0  0  0  0  0  0  0
   -0.0125   -1.2148   -0.0000 C   0  0  0  0  0  0  0  0  0  0  0  0
    1.3025   -1.9662   -0.0000 C   0  0  0  0  0  0  0  0  0  0  0  0
   -1.3525   -1.9662   -0.0000 C   0  0  0  0  0  0  0  0  0  0  0  0
    1.2899   -3.4816   -0.0000 C   0  0  0  0  0  0  0  0  0  0  0  0
    2.6174   -1.1772   -0.0000 C   0  0  0  0  0  0  0  0  0  0  0  0
   -2.6800   -1.2023   -0.0000 N   0  0  0  0  0  0  0  0  0  0  0  0
   -1.3651   -3.5442   -0.0000 C   0  0  0  0  0  0  0  0  0  0  0  0
    2.5924   -4.2330   -0.0000 C   0  0  0  0  0  0  0  0  0  0  0  0
   -0.0501   -4.2330   -0.0000 C   0  0  0  0  0  0  0  0  0  0  0  0
    3.9199   -1.9286   -0.0000 C   0  0  0  0  0  0  0  0  0  0  0  0
   -4.0326   -1.9412   -0.0000 C   0  0  0  0  0  0  0  0  0  0  0  0
   -3.4440   -2.2793   -0.0000 C   0  0  0  0  0  0  0  0  0  0  0  0
   -2.6926   -4.2831   -0.0000 C   0  0  0  0  0  0  0  0  0  0  0  0
    3.9074   -3.4565   -0.0000 N   0  0  0  0  0  0  0  0  0  0  0  0
    2.5799   -5.7483   -0.0000 C   0  0  0  0  0  0  0  0  0  0  0  0
   -0.0626   -5.7483   -0.0000 C   0  0  0  0  0  0  0  0  0  0  0  0
   -4.0451   -3.5191   -0.0000 C   0  0  0  0  0  0  0  0  0  0  0  0
   -1.9161   -3.1810   -0.0000 C   0  0  0  0  0  0  0  0  0  0  0  0
    1.2398   -6.4997   -0.0000 C   0  0  0  0  0  0  0  0  0  0  0  0
   -5.3851   -4.2580   -0.0000 C   0  0  0  0  0  0  0  0  0  0  0  0
   -6.4496   -3.6193   -0.0000 C   0  0  0  0  0  0  0  0  0  0  0  0
  1  2  1  0  0  0  0
  2  3  1  0  0  0  0
  2  4  1  0  0  0  0
  3  5  1  0  0  0  0
  3  6  2  0  0  0  0
  4  7  1  0  0  0  0
  4  8  1  0  0  0  0
  5  9  1  0  0  0  0
  5 10  2  0  0  0  0
  6 11  1  0  0  0  0
  7 12  1  0  0  0  0
  7 13  1  0  0  0  0
  8 14  1  0  0  0  0
  9 15  1  0  0  0  0
  9 16  2  0  0  0  0
 10 17  1  0  0  0  0
 12 18  1  0  0  0  0
 13 19  1  0  0  0  0
 16 20  1  0  0  0  0
 18 21  1  0  0  0  0
 21 22  1  0  0  0  0
 11 15  2  0  0  0  0
 14 18  1  0  0  0  0
 14 19  1  0  0  0  0
 17 20  2  0  0  0  0
M  END
>  <MolRegNo>
15148

>  <m>
=

>  <Value>
2800

>  <Unit>
nM

>  <Type>
Ki

>  <pValue>
5.55

>  <Ligand Efficiency>
0

>  <Binding Efficiency>
0

>  <Surface Efficiency>
0

>  <Assay Index>
122801

>  <Assay Category>


>  <Assay Organism>
Homo sapiens

>  <Target ID>
11365

>  <Target Name>
Cytochrome P450 2D6

>  <Target Organism>
Homo sapiens

>  <Target Description>
Target is a single protein chain

>  <Sequence Accession>
P10635

>  <Reference>
J Med Chem 36 (9), 1136-1145 (1993)

>  <Pubmed ID>
8487254

>  <DOI>
10.1021/jm00061a004

$$$$
255477
Actelion Java MolfileCreator 1.0

 24 27  0  0  1  0  0  0  0  0999 V2000
    0.0000   -0.0000   -0.0000 O   0  0  0  0  0  0  0  0  0  0  0  0
    0.0000    1.5172   -0.0000 C   0  0  0  0  0  0  0  0  0  0  0  0
   -1.3149   -0.7333   -0.0000 C   0  0  0  0  0  0  0  0  0  0  0  0
    1.2770    2.2632   -0.0000 C   0  0  0  0  0  0  0  0  0  0  0  0
   -1.3149    2.2885   -0.0000 C   0  0  0  0  0  0  0  0  0  0  0  0
    1.2770    3.7678   -0.0000 C   0  0  0  0  0  0  0  0  0  0  0  0
   -1.3149    3.7931   -0.0000 C   0  0  0  0  0  0  0  0  0  0  0  0
   -0.0253    4.5390   -0.0000 C   0  0  0  0  0  0  0  0  0  0  0  0
    2.5666    4.5264   -0.0000 C   0  0  0  0  0  0  0  0  0  0  0  0
   -0.0379    6.0563   -0.0000 N   0  0  0  0  0  0  0  0  0  0  0  0
    2.5793    6.0436   -0.0000 C   0  0  0  0  0  0  0  0  0  0  0  0
    3.8436    3.7678   -0.0000 C   0  0  0  0  0  0  0  0  0  0  0  0
    1.2644    6.8022   -0.0000 C   0  0  0  0  0  0  0  0  0  0  0  0
    3.8184    2.2758   -0.0000 O   0  0  0  0  0  0  0  0  0  0  0  0
    5.1459    4.5264   -0.0000 C   0  0  0  0  0  0  0  0  0  0  0  0
    6.5747    5.1712   -0.0000 N   0  0  0  0  0  0  0  0  0  0  0  0
    5.3229    3.1862   -0.0000 C   0  0  0  0  0  0  0  0  0  0  0  0
    7.8770    4.5896   -0.0000 C   0  0  0  0  0  0  0  0  0  0  0  0
    6.6252    6.7896   -0.0000 C   0  0  0  0  0  0  0  0  0  0  0  0
    6.8149    3.8436   -0.0000 C   0  0  0  0  0  0  0  0  0  0  0  0
    8.1298    3.2368   -0.0000 C   0  0  0  0  0  0  0  0  0  0  0  0
    7.0425    5.7149   -0.0000 C   0  0  0  0  0  0  0  0  0  0  0  0
    8.1045    1.7575   -0.0000 C   0  0  0  0  0  0  0  0  0  0  0  0
    9.3942    1.0115   -0.0000 C   0  0  0  0  0  0  0  0  0  0  0  0
  1  2  1  0  0  0  0
  1  3  1  0  0  0  0
  2  4  2  0  0  0  0
  2  5  1  0  0  0  0
  4  6  1  0  0  0  0
  5  7  2  0  0  0  0
  6  8  1  0  0  0  0
  6  9  2  0  0  0  0
  8 10  2  0  0  0  0
  9 11  1  0  0  0  0
  9 12  1  0  0  0  0
 10 13  1  0  0  0  0
 12 14  1  1  0  0  0
 12 15  1  0  0  0  0
 15 16  1  6  0  0  0
 15 17  1  0  0  0  0
 16 18  1  0  0  0  0
 16 19  1  0  0  0  0
 20 17  1  6  0  0  0
 18 21  1  0  0  0  0
 19 22  1  0  0  0  0
 21 23  1  6  0  0  0
 23 24  2  0  0  0  0
  7  8  1  0  0  0  0
 11 13  2  0  0  0  0
 20 21  1  0  0  0  0
 20 22  1  0  0  0  0
M  END
>  <MolRegNo>
255477

>  <m>
=

>  <Value>
80

>  <Unit>
nM

>  <Type>
Ki

>  <pValue>
7.1

>  <Ligand Efficiency>
0

>  <Binding Efficiency>
0

>  <Surface Efficiency>
0

>  <Assay Index>
122804

>  <Assay Category>


>  <Assay Organism>
Homo sapiens

>  <Target ID>
11365

>  <Target Name>
Cytochrome P450 2D6

>  <Target Organism>
Homo sapiens

>  <Target Description>
Target is a single protein chain

>  <Sequence Accession>
P10635

>  <Reference>
J Med Chem 36 (9), 1136-1145 (1993)

>  <Pubmed ID>
8487254

>  <DOI>
10.1021/jm00061a004

$$$$
14940
Actelion Java MolfileCreator 1.0

 26 30  0  0  1  0  0  0  0  0999 V2000
    0.0000   -0.0000   -0.0000 O   0  0  0  0  0  0  0  0  0  0  0  0
    1.4637    0.1547   -0.0000 C   0  0  0  0  0  0  0  0  0  0  0  0
    2.3205   -1.0353   -0.0000 O   0  0  0  0  0  0  0  0  0  0  0  0
    2.0587    1.5232   -0.0000 C   0  0  0  0  0  0  0  0  0  0  0  0
    1.6898   -2.3919   -0.0000 C   0  0  0  0  0  0  0  0  0  0  0  0
    3.5581    1.6898   -0.0000 C   0  0  0  0  0  0  0  0  0  0  0  0
    1.1781    2.7489   -0.0000 C   0  0  0  0  0  0  0  0  0  0  0  0
    4.1531    3.0821   -0.0000 O   0  0  0  0  0  0  0  0  0  0  0  0
    1.7850    4.1293   -0.0000 C   0  0  0  0  0  0  0  0  0  0  0  0
   -0.3094    2.6180   -0.0000 C   0  0  0  0  0  0  0  0  0  0  0  0
    3.2606    4.3078   -0.0000 C   0  0  0  0  0  0  0  0  0  0  0  0
    0.8925    5.3669   -0.0000 C   0  0  0  0  0  0  0  0  0  0  0  0
   -1.2019    3.8318   -0.0000 C   0  0  0  0  0  0  0  0  0  0  0  0
    3.8556    5.6762   -0.0000 C   0  0  0  0  0  0  0  0  0  0  0  0
   -0.6069    5.2122   -0.0000 N   0  0  0  0  0  0  0  0  0  0  0  0
   -2.6775    3.6890   -0.0000 C   0  0  0  0  0  0  0  0  0  0  0  0
   -1.4994    6.4259   -0.0000 C   0  0  0  0  0  0  0  0  0  0  0  0
   -3.5700    2.4990   -0.0000 N   0  0  0  0  0  0  0  0  0  0  0  0
   -3.5819    4.9147   -0.0000 C   0  0  0  0  0  0  0  0  0  0  0  0
   -2.9988    6.2831   -0.0000 C   0  0  0  0  0  0  0  0  0  0  0  0
   -4.9980    2.9631   -0.0000 C   0  0  0  0  0  0  0  0  0  0  0  0
   -5.0099    4.4506   -0.0000 C   0  0  0  0  0  0  0  0  0  0  0  0
   -6.3069    2.2134   -0.0000 C   0  0  0  0  0  0  0  0  0  0  0  0
   -6.3188    5.2122   -0.0000 C   0  0  0  0  0  0  0  0  0  0  0  0
   -7.6040    2.9750   -0.0000 C   0  0  0  0  0  0  0  0  0  0  0  0
   -7.6159    4.4744   -0.0000 C   0  0  0  0  0  0  0  0  0  0  0  0
  1  2  2  0  0  0  0
  2  3  1  0  0  0  0
  2  4  1  0  0  0  0
  3  5  1  0  0  0  0
  4  6  2  0  0  0  0
  4  7  1  0  0  0  0
  6  8  1  0  0  0  0
  7  9  1  0  0  0  0
  7 10  1  1  0  0  0
  8 11  1  0  0  0  0
  9 12  1  6  0  0  0
 10 13  1  0  0  0  0
 11 14  1  6  0  0  0
 12 15  2  0  0  0  0
 13 16  1  0  0  0  0
 15 17  1  0  0  0  0
 16 18  1  0  0  0  0
 16 19  2  0  0  0  0
 17 20  1  0  0  0  0
 18 21  1  0  0  0  0
 19 22  1  0  0  0  0
 21 23  1  0  0  0  0
 22 24  1  0  0  0  0
 23 25  2  0  0  0  0
 24 26  2  0  0  0  0
  9 11  1  0  0  0  0
 13 15  1  1  0  0  0
 19 20  1  0  0  0  0
 21 22  2  0  0  0  0
 25 26  1  0  0  0  0
M  CHG  1  15   1
M  END
>  <MolRegNo>
14940

>  <m>
=

>  <Value>
3200

>  <Unit>
nM

>  <Type>
Ki

>  <pValue>
5.5

>  <Ligand Efficiency>
0

>  <Binding Efficiency>
0

>  <Surface Efficiency>
0

>  <Assay Index>
122804

>  <Assay Category>


>  <Assay Organism>
Homo sapiens

>  <Target ID>
11365

>  <Target Name>
Cytochrome P450 2D6

>  <Target Organism>
Homo sapiens

>  <Target Description>
Target is a single protein chain

>  <Sequence Accession>
P10635

>  <Reference>
J Med Chem 36 (9), 1136-1145 (1993)

>  <Pubmed ID>
8487254

>  <DOI>
10.1021/jm00061a004

$$$$
14882
Actelion Java MolfileCreator 1.0

 29 31  0  0  0  0  0  0  0  0999 V2000
    0.0000   -0.0000   -0.0000 F   0  0  0  0  0  0  0  0  0  0  0  0
   -0.0121    1.4887   -0.0000 C   0  0  0  0  0  0  0  0  0  0  0  0
   -1.2829    2.3722   -0.0000 C   0  0  0  0  0  0  0  0  0  0  0  0
    1.3192    2.2148   -0.0000 C   0  0  0  0  0  0  0  0  0  0  0  0
   -1.3071    3.7761   -0.0000 C   0  0  0  0  0  0  0  0  0  0  0  0
    1.2950    3.7640   -0.0000 C   0  0  0  0  0  0  0  0  0  0  0  0
    0.0000    4.5265   -0.0000 C   0  0  0  0  0  0  0  0  0  0  0  0
   -0.0121    6.0757   -0.0000 C   0  0  0  0  0  0  0  0  0  0  0  0
    1.2708    6.7655   -0.0000 O   0  0  0  0  0  0  0  0  0  0  0  0
   -1.2587    6.7897   -0.0000 C   0  0  0  0  0  0  0  0  0  0  0  0
   -1.2708    8.2905   -0.0000 C   0  0  0  0  0  0  0  0  0  0  0  0
   -2.5416    9.0651   -0.0000 C   0  0  0  0  0  0  0  0  0  0  0  0
   -3.8729    8.3631   -0.0000 N   0  0  0  0  0  0  0  0  0  0  0  0
   -5.1558    9.1619   -0.0000 C   0  0  0  0  0  0  0  0  0  0  0  0
   -3.8850    6.8744   -0.0000 C   0  0  0  0  0  0  0  0  0  0  0  0
   -6.4871    8.4720   -0.0000 C   0  0  0  0  0  0  0  0  0  0  0  0
   -5.2890    6.1846   -0.0000 C   0  0  0  0  0  0  0  0  0  0  0  0
   -6.5114    7.0076   -0.0000 C   0  0  0  0  0  0  0  0  0  0  0  0
   -8.0484    7.3101   -0.0000 O   0  0  0  0  0  0  0  0  0  0  0  0
   -7.3586    5.7368   -0.0000 C   0  0  0  0  0  0  0  0  0  0  0  0
   -6.7050    4.4176   -0.0000 C   0  0  0  0  0  0  0  0  0  0  0  0
   -8.8956    5.7610   -0.0000 C   0  0  0  0  0  0  0  0  0  0  0  0
   -7.5401    3.1710   -0.0000 C   0  0  0  0  0  0  0  0  0  0  0  0
   -9.7065    4.5265   -0.0000 C   0  0  0  0  0  0  0  0  0  0  0  0
   -9.0288    3.1710   -0.0000 C   0  0  0  0  0  0  0  0  0  0  0  0
   -6.8623    1.8638   -0.0000 C   0  0  0  0  0  0  0  0  0  0  0  0
   -6.1846    0.5446   -0.0000 F   0  0  0  0  0  0  0  0  0  0  0  0
   -5.5310    2.5658   -0.0000 F   0  0  0  0  0  0  0  0  0  0  0  0
   -8.1937    1.1740   -0.0000 F   0  0  0  0  0  0  0  0  0  0  0  0
  1  2  1  0  0  0  0
  2  3  2  0  0  0  0
  2  4  1  0  0  0  0
  3  5  1  0  0  0  0
  4  6  2  0  0  0  0
  5  7  2  0  0  0  0
  7  8  1  0  0  0  0
  8  9  2  0  0  0  0
  8 10  1  0  0  0  0
 10 11  1  0  0  0  0
 11 12  1  0  0  0  0
 12 13  1  0  0  0  0
 13 14  1  0  0  0  0
 13 15  1  0  0  0  0
 14 16  1  0  0  0  0
 15 17  1  0  0  0  0
 16 18  1  0  0  0  0
 18 19  1  0  0  0  0
 18 20  1  0  0  0  0
 20 21  2  0  0  0  0
 20 22  1  0  0  0  0
 21 23  1  0  0  0  0
 22 24  2  0  0  0  0
 23 25  2  0  0  0  0
 23 26  1  0  0  0  0
 26 27  1  0  0  0  0
 26 28  1  0  0  0  0
 26 29  1  0  0  0  0
  6  7  1  0  0  0  0
 17 18  1  0  0  0  0
 24 25  1  0  0  0  0
M  END
>  <MolRegNo>
14882

>  <m>
=

>  <Value>
170

>  <Unit>
nM

>  <Type>
Ki

>  <pValue>
6.77

>  <Ligand Efficiency>
0

>  <Binding Efficiency>
0

>  <Surface Efficiency>
0

>  <Assay Index>
147623

>  <Assay Category>


>  <Assay Organism>
Homo sapiens

>  <Target ID>
11365

>  <Target Name>
Cytochrome P450 2D6

>  <Target Organism>
Homo sapiens

>  <Target Description>
Target is a single protein chain

>  <Sequence Accession>
P10635

>  <Reference>
J Med Chem 36 (9), 1136-1145 (1993)

>  <Pubmed ID>
8487254

>  <DOI>
10.1021/jm00061a004

$$$$
1363841
Actelion Java MolfileCreator 1.0

 22 25  0  0  0  0  0  0  0  0999 V2000
    0.0000   -0.0000   -0.0000 O   0  0  0  0  0  0  0  0  0  0  0  0
   -0.0125   -1.2141   -0.0000 C   0  0  0  0  0  0  0  0  0  0  0  0
    1.3017   -1.9651   -0.0000 C   0  0  0  0  0  0  0  0  0  0  0  0
   -1.3518   -1.9651   -0.0000 C   0  0  0  0  0  0  0  0  0  0  0  0
    1.2892   -3.4795   -0.0000 C   0  0  0  0  0  0  0  0  0  0  0  0
    2.6159   -1.1765   -0.0000 C   0  0  0  0  0  0  0  0  0  0  0  0
   -2.6785   -1.2016   -0.0000 N   0  0  0  0  0  0  0  0  0  0  0  0
   -1.3643   -3.5421   -0.0000 C   0  0  0  0  0  0  0  0  0  0  0  0
    2.6034   -4.2305   -0.0000 C   0  0  0  0  0  0  0  0  0  0  0  0
   -0.0501   -4.2305   -0.0000 C   0  0  0  0  0  0  0  0  0  0  0  0
    3.9176   -1.9275   -0.0000 C   0  0  0  0  0  0  0  0  0  0  0  0
   -4.0303   -1.9400   -0.0000 C   0  0  0  0  0  0  0  0  0  0  0  0
   -3.4420   -2.2780   -0.0000 C   0  0  0  0  0  0  0  0  0  0  0  0
   -2.6910   -4.2806   -0.0000 C   0  0  0  0  0  0  0  0  0  0  0  0
    3.9176   -3.4545   -0.0000 N   0  0  0  0  0  0  0  0  0  0  0  0
    2.5909   -5.7450   -0.0000 C   0  0  0  0  0  0  0  0  0  0  0  0
   -0.0626   -5.7450   -0.0000 C   0  0  0  0  0  0  0  0  0  0  0  0
   -4.0428   -3.5171   -0.0000 C   0  0  0  0  0  0  0  0  0  0  0  0
   -1.9150   -3.1792   -0.0000 C   0  0  0  0  0  0  0  0  0  0  0  0
    1.2516   -6.4960   -0.0000 C   0  0  0  0  0  0  0  0  0  0  0  0
   -5.3820   -4.2556   -0.0000 C   0  0  0  0  0  0  0  0  0  0  0  0
   -6.4459   -3.6172   -0.0000 C   0  0  0  0  0  0  0  0  0  0  0  0
  2  1  1  6  0  0  0
  2  3  1  0  0  0  0
  2  4  1  0  0  0  0
  3  5  1  0  0  0  0
  3  6  2  0  0  0  0
  4  7  1  0  0  0  0
  4  8  1  0  0  0  0
  5  9  1  0  0  0  0
  5 10  2  0  0  0  0
  6 11  1  0  0  0  0
  7 12  1  0  0  0  0
  7 13  1  0  0  0  0
  8 14  1  0  0  0  0
  9 15  1  0  0  0  0
  9 16  2  0  0  0  0
 10 17  1  0  0  0  0
 12 18  1  0  0  0  0
 13 19  1  0  0  0  0
 16 20  1  0  0  0  0
 18 21  1  0  0  0  0
 21 22  1  0  0  0  0
 11 15  2  0  0  0  0
 14 18  1  0  0  0  0
 14 19  1  0  0  0  0
 17 20  2  0  0  0  0
M  END
>  <MolRegNo>
1363841

>  <m>
=

>  <Value>
9600

>  <Unit>
nM

>  <Type>
Ki

>  <pValue>
5.02

>  <Ligand Efficiency>
0

>  <Binding Efficiency>
0

>  <Surface Efficiency>
0

>  <Assay Index>
122801

>  <Assay Category>


>  <Assay Organism>
Homo sapiens

>  <Target ID>
11365

>  <Target Name>
Cytochrome P450 2D6

>  <Target Organism>
Homo sapiens

>  <Target Description>
Target is a single protein chain

>  <Sequence Accession>
P10635

>  <Reference>
J Med Chem 36 (9), 1136-1145 (1993)

>  <Pubmed ID>
8487254

>  <DOI>
10.1021/jm00061a004

$$$$
14932
Actelion Java MolfileCreator 1.0

 26 30  0  0  1  0  0  0  0  0999 V2000
    0.0000   -0.0000   -0.0000 O   0  0  0  0  0  0  0  0  0  0  0  0
    1.4791    0.1657   -0.0000 C   0  0  0  0  0  0  0  0  0  0  0  0
    2.3192   -1.0413   -0.0000 O   0  0  0  0  0  0  0  0  0  0  0  0
    2.0707    1.5264   -0.0000 C   0  0  0  0  0  0  0  0  0  0  0  0
    1.7039   -2.3784   -0.0000 C   0  0  0  0  0  0  0  0  0  0  0  0
    3.5616    1.6684   -0.0000 C   0  0  0  0  0  0  0  0  0  0  0  0
    1.1833    2.7570   -0.0000 C   0  0  0  0  0  0  0  0  0  0  0  0
    4.1651    3.0528   -0.0000 N   0  0  0  0  0  0  0  0  0  0  0  0
    1.7986    4.1296   -0.0000 C   0  0  0  0  0  0  0  0  0  0  0  0
   -0.2958    2.6150   -0.0000 C   0  0  0  0  0  0  0  0  0  0  0  0
    3.2776    4.2952   -0.0000 C   0  0  0  0  0  0  0  0  0  0  0  0
    0.9111    5.3720   -0.0000 C   0  0  0  0  0  0  0  0  0  0  0  0
   -1.1833    3.8456   -0.0000 C   0  0  0  0  0  0  0  0  0  0  0  0
    3.8693    5.6797   -0.0000 C   0  0  0  0  0  0  0  0  0  0  0  0
   -0.5916    5.2064   -0.0000 N   0  0  0  0  0  0  0  0  0  0  0  0
   -2.6623    3.7036   -0.0000 C   0  0  0  0  0  0  0  0  0  0  0  0
   -1.4909    6.4251   -0.0000 C   0  0  0  0  0  0  0  0  0  0  0  0
   -3.5498    2.4967   -0.0000 N   0  0  0  0  0  0  0  0  0  0  0  0
   -3.5735    4.9105   -0.0000 C   0  0  0  0  0  0  0  0  0  0  0  0
   -2.9937    6.2831   -0.0000 C   0  0  0  0  0  0  0  0  0  0  0  0
   -4.9815    2.9582   -0.0000 C   0  0  0  0  0  0  0  0  0  0  0  0
   -4.9934    4.4491   -0.0000 C   0  0  0  0  0  0  0  0  0  0  0  0
   -6.2950    2.2245   -0.0000 C   0  0  0  0  0  0  0  0  0  0  0  0
   -6.3068    5.2064   -0.0000 C   0  0  0  0  0  0  0  0  0  0  0  0
   -7.5965    2.9818   -0.0000 C   0  0  0  0  0  0  0  0  0  0  0  0
   -7.6084    4.4727   -0.0000 C   0  0  0  0  0  0  0  0  0  0  0  0
  1  2  2  0  0  0  0
  2  3  1  0  0  0  0
  2  4  1  0  0  0  0
  3  5  1  0  0  0  0
  4  6  2  0  0  0  0
  4  7  1  0  0  0  0
  6  8  1  0  0  0  0
  7  9  1  0  0  0  0
  7 10  1  1  0  0  0
  8 11  1  0  0  0  0
  9 12  1  0  0  0  0
 10 13  1  0  0  0  0
 11 14  1  0  0  0  0
 12 15  1  0  0  0  0
 13 16  1  0  0  0  0
 15 17  1  0  0  0  0
 16 18  1  0  0  0  0
 16 19  2  0  0  0  0
 17 20  1  0  0  0  0
 18 21  1  0  0  0  0
 19 22  1  0  0  0  0
 21 23  1  0  0  0  0
 22 24  1  0  0  0  0
 23 25  2  0  0  0  0
 24 26  2  0  0  0  0
  9 11  1  0  0  0  0
 13 15  1  1  0  0  0
 19 20  1  0  0  0  0
 21 22  2  0  0  0  0
 25 26  1  0  0  0  0
M  END
>  <MolRegNo>
14932

>  <m>
=

>  <Value>
2900

>  <Unit>
nM

>  <Type>
Ki

>  <pValue>
5.54

>  <Ligand Efficiency>
0

>  <Binding Efficiency>
0

>  <Surface Efficiency>
0

>  <Assay Index>
122804

>  <Assay Category>


>  <Assay Organism>
Homo sapiens

>  <Target ID>
11365

>  <Target Name>
Cytochrome P450 2D6

>  <Target Organism>
Homo sapiens

>  <Target Description>
Target is a single protein chain

>  <Sequence Accession>
P10635

>  <Reference>
J Med Chem 36 (9), 1136-1145 (1993)

>  <Pubmed ID>
8487254

>  <DOI>
10.1021/jm00061a004

$$$$
1363843
Actelion Java MolfileCreator 1.0

 22 25  0  0  0  0  0  0  0  0999 V2000
    0.0000   -0.0000   -0.0000 O   0  0  0  0  0  0  0  0  0  0  0  0
    1.3152   -0.7601   -0.0000 C   0  0  0  0  0  0  0  0  0  0  0  0
    1.3031   -2.2804   -0.0000 C   0  0  0  0  0  0  0  0  0  0  0  0
    2.6303    0.0241   -0.0000 C   0  0  0  0  0  0  0  0  0  0  0  0
   -0.0362   -3.0406   -0.0000 C   0  0  0  0  0  0  0  0  0  0  0  0
    2.6183   -3.0406   -0.0000 C   0  0  0  0  0  0  0  0  0  0  0  0
    3.9455   -0.7360   -0.0000 N   0  0  0  0  0  0  0  0  0  0  0  0
    2.6183    1.5686   -0.0000 C   0  0  0  0  0  0  0  0  0  0  0  0
   -0.0483   -4.5609   -0.0000 C   0  0  0  0  0  0  0  0  0  0  0  0
   -1.3755   -2.2684   -0.0000 C   0  0  0  0  0  0  0  0  0  0  0  0
    2.6062   -4.5609   -0.0000 C   0  0  0  0  0  0  0  0  0  0  0  0
    3.2819    0.5188   -0.0000 C   0  0  0  0  0  0  0  0  0  0  0  0
    5.2607    0.0483   -0.0000 C   0  0  0  0  0  0  0  0  0  0  0  0
    3.9334    2.3408   -0.0000 C   0  0  0  0  0  0  0  0  0  0  0  0
    1.2669   -5.3089   -0.0000 N   0  0  0  0  0  0  0  0  0  0  0  0
   -1.3876   -5.3089   -0.0000 C   0  0  0  0  0  0  0  0  0  0  0  0
   -2.7148   -3.0164   -0.0000 C   0  0  0  0  0  0  0  0  0  0  0  0
    4.3075    1.1945   -0.0000 C   0  0  0  0  0  0  0  0  0  0  0  0
    5.2486    1.5927   -0.0000 C   0  0  0  0  0  0  0  0  0  0  0  0
   -2.7269   -4.5367   -0.0000 C   0  0  0  0  0  0  0  0  0  0  0  0
    5.8278    0.8808   -0.0000 C   0  0  0  0  0  0  0  0  0  0  0  0
    6.5879   -0.4344   -0.0000 C   0  0  0  0  0  0  0  0  0  0  0  0
  2  1  1  1  0  0  0
  2  3  1  0  0  0  0
  2  4  1  0  0  0  0
  3  5  1  0  0  0  0
  3  6  2  0  0  0  0
  4  7  1  6  0  0  0
  4  8  1  0  0  0  0
  5  9  1  0  0  0  0
  5 10  2  0  0  0  0
  6 11  1  0  0  0  0
  7 12  1  0  0  0  0
  7 13  1  0  0  0  0
  8 14  1  0  0  0  0
  9 15  1  0  0  0  0
  9 16  2  0  0  0  0
 10 17  1  0  0  0  0
 12 18  1  0  0  0  0
 13 19  1  0  0  0  0
 16 20  1  0  0  0  0
 18 21  1  0  0  0  0
 21 22  2  0  0  0  0
 11 15  2  0  0  0  0
 14 18  1  0  0  0  0
 14 19  1  0  0  0  0
 17 20  2  0  0  0  0
M  END
>  <MolRegNo>
1363843

>  <m>
=

>  <Value>
3500

>  <Unit>
nM

>  <Type>
Ki

>  <pValue>
5.46

>  <Ligand Efficiency>
0

>  <Binding Efficiency>
0

>  <Surface Efficiency>
0

>  <Assay Index>
122806

>  <Assay Category>


>  <Assay Organism>
Homo sapiens

>  <Target ID>
11365

>  <Target Name>
Cytochrome P450 2D6

>  <Target Organism>
Homo sapiens

>  <Target Description>
Target is a single protein chain

>  <Sequence Accession>
P10635

>  <Reference>
J Med Chem 36 (9), 1136-1145 (1993)

>  <Pubmed ID>
8487254

>  <DOI>
10.1021/jm00061a004

$$$$
15313
Actelion Java MolfileCreator 1.0

 24 27  0  0  0  0  0  0  0  0999 V2000
    0.0000   -0.0000   -0.0000 O   0  0  0  0  0  0  0  0  0  0  0  0
    1.3296   -0.7504   -0.0000 C   0  0  0  0  0  0  0  0  0  0  0  0
    1.3165   -2.2775   -0.0000 C   0  0  0  0  0  0  0  0  0  0  0  0
    2.3960    0.3686   -0.0000 C   0  0  0  0  0  0  0  0  0  0  0  0
   -0.0132   -3.0279   -0.0000 C   0  0  0  0  0  0  0  0  0  0  0  0
    2.6329   -3.0279   -0.0000 C   0  0  0  0  0  0  0  0  0  0  0  0
    3.9626    1.3033   -0.0000 N   0  0  0  0  0  0  0  0  0  0  0  0
    3.0805    1.6061   -0.0000 C   0  0  0  0  0  0  0  0  0  0  0  0
   -0.0263   -4.5550   -0.0000 C   0  0  0  0  0  0  0  0  0  0  0  0
   -1.3560   -2.2512   -0.0000 C   0  0  0  0  0  0  0  0  0  0  0  0
    2.6329   -4.5550   -0.0000 C   0  0  0  0  0  0  0  0  0  0  0  0
    3.9099    2.6724   -0.0000 C   0  0  0  0  0  0  0  0  0  0  0  0
    5.5555    0.4344   -0.0000 C   0  0  0  0  0  0  0  0  0  0  0  0
    4.7393    2.4618   -0.0000 C   0  0  0  0  0  0  0  0  0  0  0  0
    1.3033   -5.3054   -0.0000 N   0  0  0  0  0  0  0  0  0  0  0  0
   -1.3691   -5.3185   -0.0000 C   0  0  0  0  0  0  0  0  0  0  0  0
   -2.6988   -3.0147   -0.0000 C   0  0  0  0  0  0  0  0  0  0  0  0
    4.6735    3.5281   -0.0000 C   0  0  0  0  0  0  0  0  0  0  0  0
    6.2927    1.6061   -0.0000 C   0  0  0  0  0  0  0  0  0  0  0  0
   -2.7119   -4.5418   -0.0000 C   0  0  0  0  0  0  0  0  0  0  0  0
   -4.0021   -2.2380   -0.0000 O   0  0  0  0  0  0  0  0  0  0  0  0
    3.8309    4.3575   -0.0000 C   0  0  0  0  0  0  0  0  0  0  0  0
   -4.0152   -0.7372   -0.0000 C   0  0  0  0  0  0  0  0  0  0  0  0
    2.6988    4.0679   -0.0000 C   0  0  0  0  0  0  0  0  0  0  0  0
  1  2  2  0  0  0  0
  2  3  1  0  0  0  0
  2  4  1  0  0  0  0
  3  5  1  0  0  0  0
  3  6  2  0  0  0  0
  4  7  1  0  0  0  0
  4  8  1  0  0  0  0
  5  9  1  0  0  0  0
  5 10  2  0  0  0  0
  6 11  1  0  0  0  0
  7 12  1  0  0  0  0
  7 13  1  0  0  0  0
  8 14  1  0  0  0  0
  9 15  1  0  0  0  0
  9 16  2  0  0  0  0
 10 17  1  0  0  0  0
 12 18  1  0  0  0  0
 13 19  1  0  0  0  0
 16 20  1  0  0  0  0
 17 21  1  0  0  0  0
 18 22  1  0  0  0  0
 21 23  1  0  0  0  0
 22 24  2  0  0  0  0
 11 15  2  0  0  0  0
 14 18  1  0  0  0  0
 14 19  1  0  0  0  0
 17 20  2  0  0  0  0
M  END
>  <MolRegNo>
15313

>  <m>
=

>  <Value>
720

>  <Unit>
nM

>  <Type>
Ki

>  <pValue>
6.14

>  <Ligand Efficiency>
0

>  <Binding Efficiency>
0

>  <Surface Efficiency>
0

>  <Assay Index>
122804

>  <Assay Category>


>  <Assay Organism>
Homo sapiens

>  <Target ID>
11365

>  <Target Name>
Cytochrome P450 2D6

>  <Target Organism>
Homo sapiens

>  <Target Description>
Target is a single protein chain

>  <Sequence Accession>
P10635

>  <Reference>
J Med Chem 36 (9), 1136-1145 (1993)

>  <Pubmed ID>
8487254

>  <DOI>
10.1021/jm00061a004

$$$$
202450
Actelion Java MolfileCreator 1.0

 26 30  0  0  1  0  0  0  0  0999 V2000
    0.0000   -0.0000   -0.0000 O   0  0  0  0  0  0  0  0  0  0  0  0
   -0.9813    1.1429   -0.0000 C   0  0  0  0  0  0  0  0  0  0  0  0
   -2.4590    0.8774   -0.0000 O   0  0  0  0  0  0  0  0  0  0  0  0
   -0.4964    2.5629   -0.0000 C   0  0  0  0  0  0  0  0  0  0  0  0
   -2.9670   -0.5195   -0.0000 C   0  0  0  0  0  0  0  0  0  0  0  0
    0.9582    2.8516   -0.0000 C   0  0  0  0  0  0  0  0  0  0  0  0
   -1.4777    3.7059   -0.0000 C   0  0  0  0  0  0  0  0  0  0  0  0
    1.4431    4.2716   -0.0000 O   0  0  0  0  0  0  0  0  0  0  0  0
   -0.9929    5.1259   -0.0000 C   0  0  0  0  0  0  0  0  0  0  0  0
   -2.9555    3.4403   -0.0000 C   0  0  0  0  0  0  0  0  0  0  0  0
    0.4618    5.4145   -0.0000 C   0  0  0  0  0  0  0  0  0  0  0  0
   -1.9742    6.2688   -0.0000 C   0  0  0  0  0  0  0  0  0  0  0  0
   -3.9368    4.5833   -0.0000 C   0  0  0  0  0  0  0  0  0  0  0  0
    0.9467    6.8345   -0.0000 C   0  0  0  0  0  0  0  0  0  0  0  0
   -3.4519    6.0033   -0.0000 N   0  0  0  0  0  0  0  0  0  0  0  0
   -5.4145    4.3177   -0.0000 C   0  0  0  0  0  0  0  0  0  0  0  0
   -4.4332    7.1462   -0.0000 C   0  0  0  0  0  0  0  0  0  0  0  0
   -6.1995    3.0478   -0.0000 N   0  0  0  0  0  0  0  0  0  0  0  0
   -6.3958    5.4607   -0.0000 C   0  0  0  0  0  0  0  0  0  0  0  0
   -5.9109    6.8807   -0.0000 C   0  0  0  0  0  0  0  0  0  0  0  0
   -7.6657    3.4057   -0.0000 C   0  0  0  0  0  0  0  0  0  0  0  0
   -7.7812    4.8950   -0.0000 C   0  0  0  0  0  0  0  0  0  0  0  0
   -8.9010    2.5629   -0.0000 C   0  0  0  0  0  0  0  0  0  0  0  0
   -9.1435    5.5415   -0.0000 C   0  0  0  0  0  0  0  0  0  0  0  0
  -10.2633    3.2094   -0.0000 C   0  0  0  0  0  0  0  0  0  0  0  0
  -10.3787    4.6987   -0.0000 C   0  0  0  0  0  0  0  0  0  0  0  0
  1  2  2  0  0  0  0
  2  3  1  0  0  0  0
  2  4  1  0  0  0  0
  3  5  1  0  0  0  0
  4  6  2  0  0  0  0
  4  7  1  0  0  0  0
  6  8  1  0  0  0  0
  7  9  1  0  0  0  0
  7 10  1  1  0  0  0
  8 11  1  0  0  0  0
  9 12  1  6  0  0  0
 10 13  1  0  0  0  0
 11 14  1  6  0  0  0
 12 15  1  0  0  0  0
 13 16  1  0  0  0  0
 15 17  1  0  0  0  0
 16 18  1  0  0  0  0
 16 19  2  0  0  0  0
 17 20  1  0  0  0  0
 18 21  1  0  0  0  0
 19 22  1  0  0  0  0
 21 23  1  0  0  0  0
 22 24  1  0  0  0  0
 23 25  2  0  0  0  0
 24 26  2  0  0  0  0
  9 11  1  0  0  0  0
 13 15  1  1  0  0  0
 19 20  1  0  0  0  0
 21 22  2  0  0  0  0
 25 26  1  0  0  0  0
M  END
>  <MolRegNo>
202450

>  <m>
=

>  <Value>
3.3

>  <Unit>
nM

>  <Type>
Ki

>  <pValue>
8.48

>  <Ligand Efficiency>
0

>  <Binding Efficiency>
0

>  <Surface Efficiency>
0

>  <Assay Index>
147623

>  <Assay Category>


>  <Assay Organism>
Homo sapiens

>  <Target ID>
11365

>  <Target Name>
Cytochrome P450 2D6

>  <Target Organism>
Homo sapiens

>  <Target Description>
Target is a single protein chain

>  <Sequence Accession>
P10635

>  <Reference>
J Med Chem 36 (9), 1136-1145 (1993)

>  <Pubmed ID>
8487254

>  <DOI>
10.1021/jm00061a004

$$$$
444925
Actelion Java MolfileCreator 1.0

 15 17  0  0  0  0  0  0  0  0999 V2000
    0.0000   -0.0000   -0.0000 O   0  0  0  0  0  0  0  0  0  0  0  0
    1.2900    0.7693   -0.0000 C   0  0  0  0  0  0  0  0  0  0  0  0
    2.5801    0.0237   -0.0000 C   0  0  0  0  0  0  0  0  0  0  0  0
    1.2782    2.2842   -0.0000 C   0  0  0  0  0  0  0  0  0  0  0  0
    3.8701    0.7930   -0.0000 C   0  0  0  0  0  0  0  0  0  0  0  0
    2.5682    3.0535   -0.0000 C   0  0  0  0  0  0  0  0  0  0  0  0
    5.2903    0.3432   -0.0000 N   0  0  0  0  0  0  0  0  0  0  0  0
    3.8583    2.3079   -0.0000 C   0  0  0  0  0  0  0  0  0  0  0  0
    6.1661    1.5741   -0.0000 C   0  0  0  0  0  0  0  0  0  0  0  0
    5.2785    2.7813   -0.0000 C   0  0  0  0  0  0  0  0  0  0  0  0
    7.6455    1.7398   -0.0000 C   0  0  0  0  0  0  0  0  0  0  0  0
    5.8821    4.1660   -0.0000 C   0  0  0  0  0  0  0  0  0  0  0  0
    8.2491    3.1245   -0.0000 N   0  0  0  0  0  0  0  0  0  0  0  0
    8.5213    0.5326   -0.0000 C   0  0  0  0  0  0  0  0  0  0  0  0
    7.3615    4.3317   -0.0000 C   0  0  0  0  0  0  0  0  0  0  0  0
  1  2  2  0  0  0  0
  2  3  1  0  0  0  0
  2  4  1  0  0  0  0
  3  5  2  0  0  0  0
  4  6  2  0  0  0  0
  5  7  1  0  0  0  0
  5  8  1  0  0  0  0
  7  9  1  0  0  0  0
  8 10  2  0  0  0  0
  9 11  2  0  0  0  0
 10 12  1  0  0  0  0
 11 13  1  0  0  0  0
 11 14  1  0  0  0  0
 12 15  2  0  0  0  0
  6  8  1  0  0  0  0
  9 10  1  0  0  0  0
 13 15  1  0  0  0  0
M  END
>  <MolRegNo>
444925

>  <m>
=

>  <Value>
65000

>  <Unit>
nM

>  <Type>
Ki

>  <pValue>
4.19

>  <Ligand Efficiency>
0

>  <Binding Efficiency>
0

>  <Surface Efficiency>
0

>  <Assay Index>
122804

>  <Assay Category>


>  <Assay Organism>
Homo sapiens

>  <Target ID>
11365

>  <Target Name>
Cytochrome P450 2D6

>  <Target Organism>
Homo sapiens

>  <Target Description>
Target is a single protein chain

>  <Sequence Accession>
P10635

>  <Reference>
J Med Chem 36 (9), 1136-1145 (1993)

>  <Pubmed ID>
8487254

>  <DOI>
10.1021/jm00061a004

$$$$
1363786
Actelion Java MolfileCreator 1.0

 26 30  0  0  1  0  0  0  0  0999 V2000
    0.0000   -0.0000   -0.0000 O   0  0  0  0  0  0  0  0  0  0  0  0
    1.4779    0.1537   -0.0000 C   0  0  0  0  0  0  0  0  0  0  0  0
    2.3174   -1.0405   -0.0000 O   0  0  0  0  0  0  0  0  0  0  0  0
    2.0691    1.5134   -0.0000 C   0  0  0  0  0  0  0  0  0  0  0  0
    1.7026   -2.4002   -0.0000 C   0  0  0  0  0  0  0  0  0  0  0  0
    3.5589    1.6789   -0.0000 C   0  0  0  0  0  0  0  0  0  0  0  0
    1.1824    2.7431   -0.0000 C   0  0  0  0  0  0  0  0  0  0  0  0
    4.4102    0.4729   -0.0000 O   0  0  0  0  0  0  0  0  0  0  0  0
    4.1619    3.0623   -0.0000 C   0  0  0  0  0  0  0  0  0  0  0  0
    1.7972    4.1264   -0.0000 C   0  0  0  0  0  0  0  0  0  0  0  0
   -0.2956    2.6130   -0.0000 C   0  0  0  0  0  0  0  0  0  0  0  0
    3.2751    4.2919   -0.0000 C   0  0  0  0  0  0  0  0  0  0  0  0
    0.9104    5.3679   -0.0000 C   0  0  0  0  0  0  0  0  0  0  0  0
   -1.1824    3.8308   -0.0000 C   0  0  0  0  0  0  0  0  0  0  0  0
   -0.5912    5.2142   -0.0000 N   0  0  0  0  0  0  0  0  0  0  0  0
   -2.6603    3.6889   -0.0000 C   0  0  0  0  0  0  0  0  0  0  0  0
   -1.4898    6.4320   -0.0000 C   0  0  0  0  0  0  0  0  0  0  0  0
   -3.5471    2.4948   -0.0000 N   0  0  0  0  0  0  0  0  0  0  0  0
   -3.5707    4.9068   -0.0000 C   0  0  0  0  0  0  0  0  0  0  0  0
   -2.9914    6.2901   -0.0000 C   0  0  0  0  0  0  0  0  0  0  0  0
   -4.9777    2.9559   -0.0000 C   0  0  0  0  0  0  0  0  0  0  0  0
   -4.9895    4.4457   -0.0000 C   0  0  0  0  0  0  0  0  0  0  0  0
   -6.3020    2.2110   -0.0000 C   0  0  0  0  0  0  0  0  0  0  0  0
   -6.3020    5.2024   -0.0000 C   0  0  0  0  0  0  0  0  0  0  0  0
   -7.6025    2.9677   -0.0000 C   0  0  0  0  0  0  0  0  0  0  0  0
   -7.6025    4.4693   -0.0000 C   0  0  0  0  0  0  0  0  0  0  0  0
  1  2  2  0  0  0  0
  2  3  1  0  0  0  0
  4  2  1  6  0  0  0
  3  5  1  0  0  0  0
  4  6  1  0  0  0  0
  4  7  1  0  0  0  0
  6  8  1  1  0  0  0
  6  9  1  0  0  0  0
  7 10  1  0  0  0  0
  7 11  1  1  0  0  0
  9 12  1  0  0  0  0
 10 13  1  6  0  0  0
 11 14  1  0  0  0  0
 13 15  1  0  0  0  0
 14 16  1  0  0  0  0
 15 17  1  0  0  0  0
 16 18  1  0  0  0  0
 16 19  2  0  0  0  0
 17 20  1  0  0  0  0
 18 21  1  0  0  0  0
 19 22  1  0  0  0  0
 21 23  1  0  0  0  0
 22 24  1  0  0  0  0
 23 25  2  0  0  0  0
 24 26  2  0  0  0  0
 10 12  1  0  0  0  0
 14 15  1  1  0  0  0
 19 20  1  0  0  0  0
 21 22  2  0  0  0  0
 25 26  1  0  0  0  0
M  END
>  <MolRegNo>
1363786

>  <m>
=

>  <Value>
31

>  <Unit>
nM

>  <Type>
Ki

>  <pValue>
7.51

>  <Ligand Efficiency>
0

>  <Binding Efficiency>
0

>  <Surface Efficiency>
0

>  <Assay Index>
122804

>  <Assay Category>


>  <Assay Organism>
Homo sapiens

>  <Target ID>
11365

>  <Target Name>
Cytochrome P450 2D6

>  <Target Organism>
Homo sapiens

>  <Target Description>
Target is a single protein chain

>  <Sequence Accession>
P10635

>  <Reference>
J Med Chem 36 (9), 1136-1145 (1993)

>  <Pubmed ID>
8487254

>  <DOI>
10.1021/jm00061a004

$$$$
1363787
Actelion Java MolfileCreator 1.0

 23 26  0  0  0  0  0  0  0  0999 V2000
    0.0000   -0.0000   -0.0000 Cl  0  0  0  0  0  0  0  0  0  0  0  0
    1.2794   -0.7518   -0.0000 C   0  0  0  0  0  0  0  0  0  0  0  0
    2.5983    0.0396   -0.0000 C   0  0  0  0  0  0  0  0  0  0  0  0
    1.2662   -2.2818   -0.0000 C   0  0  0  0  0  0  0  0  0  0  0  0
    3.9173   -0.7122   -0.0000 C   0  0  0  0  0  0  0  0  0  0  0  0
    2.5851   -3.0336   -0.0000 C   0  0  0  0  0  0  0  0  0  0  0  0
    3.9041   -2.2422   -0.0000 C   0  0  0  0  0  0  0  0  0  0  0  0
    5.2230    0.0659   -0.0000 C   0  0  0  0  0  0  0  0  0  0  0  0
    5.2362   -2.9940   -0.0000 N   0  0  0  0  0  0  0  0  0  0  0  0
    6.5420   -0.6858   -0.0000 C   0  0  0  0  0  0  0  0  0  0  0  0
    5.2098    1.6223   -0.0000 C   0  0  0  0  0  0  0  0  0  0  0  0
    6.5551   -2.2158   -0.0000 C   0  0  0  0  0  0  0  0  0  0  0  0
    3.8513    2.4005   -0.0000 O   0  0  0  0  0  0  0  0  0  0  0  0
    6.2782    2.7434   -0.0000 C   0  0  0  0  0  0  0  0  0  0  0  0
    7.8477    3.6798   -0.0000 N   0  0  0  0  0  0  0  0  0  0  0  0
    6.9640    3.9832   -0.0000 C   0  0  0  0  0  0  0  0  0  0  0  0
    7.7949    5.0515   -0.0000 C   0  0  0  0  0  0  0  0  0  0  0  0
    9.4436    2.8093   -0.0000 C   0  0  0  0  0  0  0  0  0  0  0  0
    8.6259    4.8405   -0.0000 C   0  0  0  0  0  0  0  0  0  0  0  0
    8.5599    5.9089   -0.0000 C   0  0  0  0  0  0  0  0  0  0  0  0
   10.1822    3.9832   -0.0000 C   0  0  0  0  0  0  0  0  0  0  0  0
    7.7158    6.7398   -0.0000 C   0  0  0  0  0  0  0  0  0  0  0  0
    6.5815    6.4496   -0.0000 C   0  0  0  0  0  0  0  0  0  0  0  0
  1  2  1  0  0  0  0
  2  3  2  0  0  0  0
  2  4  1  0  0  0  0
  3  5  1  0  0  0  0
  4  6  2  0  0  0  0
  5  7  1  0  0  0  0
  5  8  2  0  0  0  0
  7  9  2  0  0  0  0
  8 10  1  0  0  0  0
  8 11  1  0  0  0  0
  9 12  1  0  0  0  0
 11 13  1  1  0  0  0
 11 14  1  0  0  0  0
 14 15  1  6  0  0  0
 14 16  1  0  0  0  0
 15 17  1  0  0  0  0
 15 18  1  0  0  0  0
 16 19  1  0  0  0  0
 17 20  1  0  0  0  0
 18 21  1  0  0  0  0
 20 22  1  0  0  0  0
 22 23  2  0  0  0  0
  6  7  1  0  0  0  0
 10 12  2  0  0  0  0
 19 20  1  0  0  0  0
 19 21  1  0  0  0  0
M  END
>  <MolRegNo>
1363787

>  <m>
=

>  <Value>
3500

>  <Unit>
nM

>  <Type>
Ki

>  <pValue>
5.46

>  <Ligand Efficiency>
0

>  <Binding Efficiency>
0

>  <Surface Efficiency>
0

>  <Assay Index>
122804

>  <Assay Category>


>  <Assay Organism>
Homo sapiens

>  <Target ID>
11365

>  <Target Name>
Cytochrome P450 2D6

>  <Target Organism>
Homo sapiens

>  <Target Description>
Target is a single protein chain

>  <Sequence Accession>
P10635

>  <Reference>
J Med Chem 36 (9), 1136-1145 (1993)

>  <Pubmed ID>
8487254

>  <DOI>
10.1021/jm00061a004

$$$$
9837
Actelion Java MolfileCreator 1.0

 14 16  0  0  0  0  0  0  0  0999 V2000
    0.0000   -0.0000   -0.0000 N   0  0  0  0  0  0  0  0  0  0  0  0
   -0.6193   -1.3438   -0.0000 C   0  0  0  0  0  0  0  0  0  0  0  0
   -0.8998    1.2153   -0.0000 C   0  0  0  0  0  0  0  0  0  0  0  0
   -2.1034   -1.4841   -0.0000 C   0  0  0  0  0  0  0  0  0  0  0  0
    0.2571   -2.5474   -0.0000 C   0  0  0  0  0  0  0  0  0  0  0  0
   -2.3955    1.0751   -0.0000 C   0  0  0  0  0  0  0  0  0  0  0  0
   -2.9798   -2.6877   -0.0000 N   0  0  0  0  0  0  0  0  0  0  0  0
   -2.9915   -0.2688   -0.0000 C   0  0  0  0  0  0  0  0  0  0  0  0
   -4.4171   -2.2202   -0.0000 C   0  0  0  0  0  0  0  0  0  0  0  0
   -4.4288   -0.7245   -0.0000 C   0  0  0  0  0  0  0  0  0  0  0  0
   -5.7376   -2.9564   -0.0000 C   0  0  0  0  0  0  0  0  0  0  0  0
   -5.7376    0.0467   -0.0000 C   0  0  0  0  0  0  0  0  0  0  0  0
   -7.0463   -2.1969   -0.0000 C   0  0  0  0  0  0  0  0  0  0  0  0
   -7.0463   -0.7011   -0.0000 C   0  0  0  0  0  0  0  0  0  0  0  0
  1  2  2  0  0  0  0
  1  3  1  0  0  0  0
  2  4  1  0  0  0  0
  2  5  1  0  0  0  0
  3  6  2  0  0  0  0
  4  7  1  0  0  0  0
  4  8  2  0  0  0  0
  7  9  1  0  0  0  0
  8 10  1  0  0  0  0
  9 11  1  0  0  0  0
 10 12  1  0  0  0  0
 11 13  2  0  0  0  0
 12 14  2  0  0  0  0
  6  8  1  0  0  0  0
  9 10  2  0  0  0  0
 13 14  1  0  0  0  0
M  END
>  <MolRegNo>
9837

>  <m>
=

>  <Value>
86000

>  <Unit>
nM

>  <Type>
Ki

>  <pValue>
4.07

>  <Ligand Efficiency>
0

>  <Binding Efficiency>
0

>  <Surface Efficiency>
0

>  <Assay Index>
122804

>  <Assay Category>


>  <Assay Organism>
Homo sapiens

>  <Target ID>
11365

>  <Target Name>
Cytochrome P450 2D6

>  <Target Organism>
Homo sapiens

>  <Target Description>
Target is a single protein chain

>  <Sequence Accession>
P10635

>  <Reference>
J Med Chem 36 (9), 1136-1145 (1993)

>  <Pubmed ID>
8487254

>  <DOI>
10.1021/jm00061a004

$$$$
38000
Actelion Java MolfileCreator 1.0

 23 27  0  0  1  0  0  0  0  0999 V2000
    0.0000   -0.0000   -0.0000 O   0  0  0  0  0  0  0  0  0  0  0  0
    1.3249    0.7728   -0.0000 C   0  0  0  0  0  0  0  0  0  0  0  0
    2.6252    0.0245   -0.0000 C   0  0  0  0  0  0  0  0  0  0  0  0
    1.3126    2.3185   -0.0000 C   0  0  0  0  0  0  0  0  0  0  0  0
    3.9256    0.7974   -0.0000 C   0  0  0  0  0  0  0  0  0  0  0  0
    2.6130    3.1037   -0.0000 C   0  0  0  0  0  0  0  0  0  0  0  0
    3.9256    2.3431   -0.0000 C   0  0  0  0  0  0  0  0  0  0  0  0
    5.2259    0.0368   -0.0000 C   0  0  0  0  0  0  0  0  0  0  0  0
    5.2382    3.1159   -0.0000 C   0  0  0  0  0  0  0  0  0  0  0  0
    3.8888    3.8888   -0.0000 C   0  0  0  0  0  0  0  0  0  0  0  0
    6.5508    0.8097   -0.0000 C   0  0  0  0  0  0  0  0  0  0  0  0
    6.5508    2.3431   -0.0000 C   0  0  0  0  0  0  0  0  0  0  0  0
    5.2014    4.6862   -0.0000 C   0  0  0  0  0  0  0  0  0  0  0  0
    3.2631    4.9560   -0.0000 O   0  0  0  0  0  0  0  0  0  0  0  0
    2.6498    3.9010   -0.0000 C   0  0  0  0  0  0  0  0  0  0  0  0
    7.8634    3.1159   -0.0000 C   0  0  0  0  0  0  0  0  0  0  0  0
    6.5753    5.4345   -0.0000 C   0  0  0  0  0  0  0  0  0  0  0  0
    7.8757    4.6616   -0.0000 C   0  0  0  0  0  0  0  0  0  0  0  0
    9.3110    2.6252   -0.0000 C   0  0  0  0  0  0  0  0  0  0  0  0
    9.3233    5.1401   -0.0000 C   0  0  0  0  0  0  0  0  0  0  0  0
    7.8512    6.2196   -0.0000 C   0  0  0  0  0  0  0  0  0  0  0  0
   10.2188    3.8642   -0.0000 C   0  0  0  0  0  0  0  0  0  0  0  0
    9.8140    6.5999   -0.0000 O   0  0  0  0  0  0  0  0  0  0  0  0
  1  2  2  0  0  0  0
  2  3  1  0  0  0  0
  2  4  1  0  0  0  0
  3  5  2  0  0  0  0
  4  6  1  0  0  0  0
  5  7  1  0  0  0  0
  5  8  1  0  0  0  0
  7  9  1  0  0  0  0
  7 10  1  6  0  0  0
  8 11  1  0  0  0  0
  9 12  1  0  0  0  0
  9 13  1  0  0  0  0
 10 14  1  0  0  0  0
 10 15  1  0  0  0  0
 12 16  1  0  0  0  0
 13 17  1  0  0  0  0
 16 18  1  0  0  0  0
 16 19  1  0  0  0  0
 18 20  1  0  0  0  0
 18 21  1  1  0  0  0
 19 22  1  0  0  0  0
 20 23  2  0  0  0  0
  6  7  1  0  0  0  0
 11 12  1  0  0  0  0
 14 15  1  0  0  0  0
 17 18  1  0  0  0  0
 20 22  1  0  0  0  0
M  END
>  <MolRegNo>
38000

>  <m>
=

>  <Value>
7

>  <Unit>
nM

>  <Type>
Ki

>  <pValue>
8.15

>  <Ligand Efficiency>
0.48

>  <Binding Efficiency>
25.94

>  <Surface Efficiency>
17.47

>  <Assay Index>
50937

>  <Assay Category>


>  <Assay Organism>
Homo sapiens

>  <Target ID>
65

>  <Target Name>
Cytochrome P450 19A1

>  <Target Organism>
Homo sapiens

>  <Target Description>
Target is a single protein chain

>  <Sequence Accession>
P11511

>  <Reference>
J Med Chem 34 (4), 1344-1349 (1991)

>  <Pubmed ID>
2016709

>  <DOI>
10.1021/jm00108a016

$$$$
1385520
Actelion Java MolfileCreator 1.0

 24 28  0  0  1  0  0  0  0  0999 V2000
    0.0000   -0.0000   -0.0000 O   0  0  0  0  0  0  0  0  0  0  0  0
    1.2992    0.7509   -0.0000 C   0  0  0  0  0  0  0  0  0  0  0  0
    2.5745    0.0238   -0.0000 C   0  0  0  0  0  0  0  0  0  0  0  0
    1.2873    2.2527   -0.0000 C   0  0  0  0  0  0  0  0  0  0  0  0
    3.8499    0.7747   -0.0000 C   0  0  0  0  0  0  0  0  0  0  0  0
    2.5626    3.0275   -0.0000 C   0  0  0  0  0  0  0  0  0  0  0  0
    3.8499    2.2766   -0.0000 C   0  0  0  0  0  0  0  0  0  0  0  0
    5.1252    0.0358   -0.0000 C   0  0  0  0  0  0  0  0  0  0  0  0
    5.1372    3.0394   -0.0000 C   0  0  0  0  0  0  0  0  0  0  0  0
    3.8141    3.7784   -0.0000 C   0  0  0  0  0  0  0  0  0  0  0  0
    6.4244    0.7867   -0.0000 C   0  0  0  0  0  0  0  0  0  0  0  0
    6.4244    2.2885   -0.0000 C   0  0  0  0  0  0  0  0  0  0  0  0
    5.1014    4.5650   -0.0000 C   0  0  0  0  0  0  0  0  0  0  0  0
    2.5030    4.5293   -0.0000 C   0  0  0  0  0  0  0  0  0  0  0  0
    7.7117    3.0394   -0.0000 C   0  0  0  0  0  0  0  0  0  0  0  0
    6.4363    5.3040   -0.0000 C   0  0  0  0  0  0  0  0  0  0  0  0
    1.7283    5.8404   -0.0000 O   0  0  0  0  0  0  0  0  0  0  0  0
    0.9893    4.5412   -0.0000 C   0  0  0  0  0  0  0  0  0  0  0  0
    7.7355    4.5412   -0.0000 C   0  0  0  0  0  0  0  0  0  0  0  0
    9.1181    2.5626   -0.0000 C   0  0  0  0  0  0  0  0  0  0  0  0
    9.1539    5.0060   -0.0000 C   0  0  0  0  0  0  0  0  0  0  0  0
    7.7117    6.0668   -0.0000 C   0  0  0  0  0  0  0  0  0  0  0  0
   10.0121    3.7665   -0.0000 C   0  0  0  0  0  0  0  0  0  0  0  0
    9.6307    6.4244   -0.0000 O   0  0  0  0  0  0  0  0  0  0  0  0
  1  2  2  0  0  0  0
  2  3  1  0  0  0  0
  2  4  1  0  0  0  0
  3  5  2  0  0  0  0
  4  6  1  0  0  0  0
  5  7  1  0  0  0  0
  5  8  1  0  0  0  0
  7  9  1  0  0  0  0
  7 10  1  1  0  0  0
  8 11  1  0  0  0  0
  9 12  1  0  0  0  0
  9 13  1  1  0  0  0
 14 10  1  1  0  0  0
 12 15  1  0  0  0  0
 13 16  1  0  0  0  0
 14 17  1  0  0  0  0
 14 18  1  0  0  0  0
 15 19  1  0  0  0  0
 15 20  1  1  0  0  0
 19 21  1  0  0  0  0
 19 22  1  1  0  0  0
 20 23  1  0  0  0  0
 21 24  2  0  0  0  0
  6  7  1  0  0  0  0
 12 11  1  6  0  0  0
 16 19  1  0  0  0  0
 17 18  1  0  0  0  0
 21 23  1  0  0  0  0
M  END
>  <MolRegNo>
1385520

>  <m>
=

>  <Value>
86

>  <Unit>
nM

>  <Type>
Ki

>  <pValue>
7.07

>  <Ligand Efficiency>
0.4

>  <Binding Efficiency>
21.51

>  <Surface Efficiency>
15.14

>  <Assay Index>
50937

>  <Assay Category>


>  <Assay Organism>
Homo sapiens

>  <Target ID>
65

>  <Target Name>
Cytochrome P450 19A1

>  <Target Organism>
Homo sapiens

>  <Target Description>
Target is a single protein chain

>  <Sequence Accession>
P11511

>  <Reference>
J Med Chem 34 (4), 1344-1349 (1991)

>  <Pubmed ID>
2016709

>  <DOI>
10.1021/jm00108a016

$$$$
37969
Actelion Java MolfileCreator 1.0

 23 27  0  0  1  0  0  0  0  0999 V2000
    0.0000   -0.0000   -0.0000 S   0  0  0  0  0  0  0  0  0  0  0  0
    0.5989   -1.0511   -0.0000 C   0  0  0  0  0  0  0  0  0  0  0  0
   -0.6233   -1.0511   -0.0000 C   0  0  0  0  0  0  0  0  0  0  0  0
    0.6111   -2.5665   -0.0000 C   0  0  0  0  0  0  0  0  0  0  0  0
    0.5989   -4.0820   -0.0000 C   0  0  0  0  0  0  0  0  0  0  0  0
    1.9310   -1.7843   -0.0000 C   0  0  0  0  0  0  0  0  0  0  0  0
   -0.7333   -1.7843   -0.0000 C   0  0  0  0  0  0  0  0  0  0  0  0
   -0.7455   -4.8275   -0.0000 C   0  0  0  0  0  0  0  0  0  0  0  0
    1.8943   -4.8519   -0.0000 C   0  0  0  0  0  0  0  0  0  0  0  0
    3.2509   -2.5665   -0.0000 C   0  0  0  0  0  0  0  0  0  0  0  0
    1.8943   -0.2200   -0.0000 C   0  0  0  0  0  0  0  0  0  0  0  0
   -2.0532   -2.5543   -0.0000 C   0  0  0  0  0  0  0  0  0  0  0  0
   -2.0654   -4.0575   -0.0000 C   0  0  0  0  0  0  0  0  0  0  0  0
    3.2265   -4.0698   -0.0000 C   0  0  0  0  0  0  0  0  0  0  0  0
    4.5709   -1.7966   -0.0000 C   0  0  0  0  0  0  0  0  0  0  0  0
    3.2754    0.5377   -0.0000 C   0  0  0  0  0  0  0  0  0  0  0  0
   -3.4220   -4.8031   -0.0000 O   0  0  0  0  0  0  0  0  0  0  0  0
    4.5953   -0.2567   -0.0000 C   0  0  0  0  0  0  0  0  0  0  0  0
    6.0130   -2.2854   -0.0000 C   0  0  0  0  0  0  0  0  0  0  0  0
    6.0374    0.2200   -0.0000 C   0  0  0  0  0  0  0  0  0  0  0  0
    4.5586    1.3077   -0.0000 C   0  0  0  0  0  0  0  0  0  0  0  0
    6.9296   -1.0388   -0.0000 C   0  0  0  0  0  0  0  0  0  0  0  0
    6.5263    1.6866   -0.0000 O   0  0  0  0  0  0  0  0  0  0  0  0
  1  2  1  0  0  0  0
  1  3  1  0  0  0  0
  4  2  1  6  0  0  0
  4  5  1  0  0  0  0
  4  6  1  0  0  0  0
  4  7  1  0  0  0  0
  5  8  2  0  0  0  0
  5  9  1  0  0  0  0
  6 10  1  0  0  0  0
  6 11  1  0  0  0  0
  7 12  1  0  0  0  0
  8 13  1  0  0  0  0
  9 14  1  0  0  0  0
 10 15  1  0  0  0  0
 11 16  1  0  0  0  0
 13 17  2  0  0  0  0
 15 18  1  0  0  0  0
 15 19  1  0  0  0  0
 18 20  1  0  0  0  0
 18 21  1  1  0  0  0
 19 22  1  0  0  0  0
 20 23  2  0  0  0  0
  2  3  1  0  0  0  0
 10 14  1  0  0  0  0
 12 13  1  0  0  0  0
 16 18  1  0  0  0  0
 20 22  1  0  0  0  0
M  END
>  <MolRegNo>
37969

>  <m>
=

>  <Value>
1

>  <Unit>
nM

>  <Type>
Ki

>  <pValue>
9

>  <Ligand Efficiency>
0.53

>  <Binding Efficiency>
27.23

>  <Surface Efficiency>
26.36

>  <Assay Index>
50937

>  <Assay Category>


>  <Assay Organism>
Homo sapiens

>  <Target ID>
65

>  <Target Name>
Cytochrome P450 19A1

>  <Target Organism>
Homo sapiens

>  <Target Description>
Target is a single protein chain

>  <Sequence Accession>
P11511

>  <Reference>
J Med Chem 34 (4), 1344-1349 (1991)

>  <Pubmed ID>
2016709

>  <DOI>
10.1021/jm00108a016

$$$$
1385519
Actelion Java MolfileCreator 1.0

 24 28  0  0  1  0  0  0  0  0999 V2000
    0.0000   -0.0000   -0.0000 O   0  0  0  0  0  0  0  0  0  0  0  0
    1.2992    0.7509   -0.0000 C   0  0  0  0  0  0  0  0  0  0  0  0
    2.5745    0.0238   -0.0000 C   0  0  0  0  0  0  0  0  0  0  0  0
    1.2873    2.2527   -0.0000 C   0  0  0  0  0  0  0  0  0  0  0  0
    3.8499    0.7747   -0.0000 C   0  0  0  0  0  0  0  0  0  0  0  0
    2.5626    3.0275   -0.0000 C   0  0  0  0  0  0  0  0  0  0  0  0
    3.8499    2.2766   -0.0000 C   0  0  0  0  0  0  0  0  0  0  0  0
    5.1252    0.0358   -0.0000 C   0  0  0  0  0  0  0  0  0  0  0  0
    5.1372    3.0394   -0.0000 C   0  0  0  0  0  0  0  0  0  0  0  0
    3.8141    3.7784   -0.0000 C   0  0  0  0  0  0  0  0  0  0  0  0
    6.4244    0.7867   -0.0000 C   0  0  0  0  0  0  0  0  0  0  0  0
    6.4244    2.2885   -0.0000 C   0  0  0  0  0  0  0  0  0  0  0  0
    5.1014    4.5650   -0.0000 C   0  0  0  0  0  0  0  0  0  0  0  0
    2.5030    4.5293   -0.0000 C   0  0  0  0  0  0  0  0  0  0  0  0
    7.7117    3.0394   -0.0000 C   0  0  0  0  0  0  0  0  0  0  0  0
    6.4363    5.3040   -0.0000 C   0  0  0  0  0  0  0  0  0  0  0  0
    1.7283    5.8404   -0.0000 O   0  0  0  0  0  0  0  0  0  0  0  0
    0.9893    4.5412   -0.0000 C   0  0  0  0  0  0  0  0  0  0  0  0
    7.7355    4.5412   -0.0000 C   0  0  0  0  0  0  0  0  0  0  0  0
    9.1181    2.5626   -0.0000 C   0  0  0  0  0  0  0  0  0  0  0  0
    9.1539    5.0060   -0.0000 C   0  0  0  0  0  0  0  0  0  0  0  0
    7.7117    6.0668   -0.0000 C   0  0  0  0  0  0  0  0  0  0  0  0
   10.0121    3.7665   -0.0000 C   0  0  0  0  0  0  0  0  0  0  0  0
    9.6307    6.4244   -0.0000 O   0  0  0  0  0  0  0  0  0  0  0  0
  1  2  2  0  0  0  0
  2  3  1  0  0  0  0
  2  4  1  0  0  0  0
  3  5  2  0  0  0  0
  4  6  1  0  0  0  0
  5  7  1  0  0  0  0
  5  8  1  0  0  0  0
  7  9  1  0  0  0  0
  7 10  1  1  0  0  0
  8 11  1  0  0  0  0
  9 12  1  0  0  0  0
  9 13  1  1  0  0  0
 14 10  1  6  0  0  0
 12 15  1  0  0  0  0
 13 16  1  0  0  0  0
 14 17  1  0  0  0  0
 14 18  1  0  0  0  0
 15 19  1  0  0  0  0
 15 20  1  1  0  0  0
 19 21  1  0  0  0  0
 19 22  1  1  0  0  0
 20 23  1  0  0  0  0
 21 24  2  0  0  0  0
  6  7  1  0  0  0  0
 12 11  1  6  0  0  0
 16 19  1  0  0  0  0
 17 18  1  0  0  0  0
 21 23  1  0  0  0  0
M  END
>  <MolRegNo>
1385519

>  <m>
=

>  <Value>
753

>  <Unit>
nM

>  <Type>
Ki

>  <pValue>
6.12

>  <Ligand Efficiency>
0.35

>  <Binding Efficiency>
18.64

>  <Surface Efficiency>
13.12

>  <Assay Index>
50937

>  <Assay Category>


>  <Assay Organism>
Homo sapiens

>  <Target ID>
65

>  <Target Name>
Cytochrome P450 19A1

>  <Target Organism>
Homo sapiens

>  <Target Description>
Target is a single protein chain

>  <Sequence Accession>
P11511

>  <Reference>
J Med Chem 34 (4), 1344-1349 (1991)

>  <Pubmed ID>
2016709

>  <DOI>
10.1021/jm00108a016

$$$$
114153
Actelion Java MolfileCreator 1.0

 29 32  0  0  0  0  0  0  0  0999 V2000
    0.0000   -0.0000   -0.0000 Cl  0  0  0  0  0  0  0  0  0  0  0  0
   -1.0665   -0.5992   -0.0000 C   0  0  0  0  0  0  0  0  0  0  0  0
   -2.3967    0.1678   -0.0000 C   0  0  0  0  0  0  0  0  0  0  0  0
   -1.0785   -2.1091   -0.0000 C   0  0  0  0  0  0  0  0  0  0  0  0
   -3.7268   -0.5752   -0.0000 C   0  0  0  0  0  0  0  0  0  0  0  0
   -2.4087   -2.8520   -0.0000 C   0  0  0  0  0  0  0  0  0  0  0  0
   -3.7388   -2.0851   -0.0000 C   0  0  0  0  0  0  0  0  0  0  0  0
   -5.0690   -2.8401   -0.0000 C   0  0  0  0  0  0  0  0  0  0  0  0
   -5.0809   -4.3500   -0.0000 C   0  0  0  0  0  0  0  0  0  0  0  0
   -6.4111   -5.1049   -0.0000 C   0  0  0  0  0  0  0  0  0  0  0  0
   -7.7532   -5.7520   -0.0000 O   0  0  0  0  0  0  0  0  0  0  0  0
   -6.5309   -3.6190   -0.0000 O   0  0  0  0  0  0  0  0  0  0  0  0
   -6.4231   -6.6148   -0.0000 C   0  0  0  0  0  0  0  0  0  0  0  0
   -8.7838   -4.6136   -0.0000 C   0  0  0  0  0  0  0  0  0  0  0  0
   -8.0289   -3.2954   -0.0000 C   0  0  0  0  0  0  0  0  0  0  0  0
   -5.1169   -7.3578   -0.0000 N   0  0  0  0  0  0  0  0  0  0  0  0
  -10.3057   -4.7694   -0.0000 C   0  0  0  0  0  0  0  0  0  0  0  0
   -3.7628   -6.7107   -0.0000 C   0  0  0  0  0  0  0  0  0  0  0  0
   -4.9851   -8.8437   -0.0000 C   0  0  0  0  0  0  0  0  0  0  0  0
  -10.9288   -6.1475   -0.0000 S   0  0  0  0  0  0  0  0  0  0  0  0
   -2.7562   -7.8251   -0.0000 N   0  0  0  0  0  0  0  0  0  0  0  0
   -3.5111   -9.1433   -0.0000 C   0  0  0  0  0  0  0  0  0  0  0  0
  -12.4507   -6.3032   -0.0000 C   0  0  0  0  0  0  0  0  0  0  0  0
  -13.0738   -7.6813   -0.0000 C   0  0  0  0  0  0  0  0  0  0  0  0
  -13.3614   -5.0570   -0.0000 C   0  0  0  0  0  0  0  0  0  0  0  0
  -14.5957   -7.8371   -0.0000 C   0  0  0  0  0  0  0  0  0  0  0  0
  -14.8833   -5.2128   -0.0000 C   0  0  0  0  0  0  0  0  0  0  0  0
  -15.5065   -6.5908   -0.0000 C   0  0  0  0  0  0  0  0  0  0  0  0
  -16.7288   -6.7107   -0.0000 N   0  0  0  0  0  0  0  0  0  0  0  0
  1  2  1  0  0  0  0
  2  3  2  0  0  0  0
  2  4  1  0  0  0  0
  3  5  1  0  0  0  0
  4  6  2  0  0  0  0
  5  7  2  0  0  0  0
  7  8  1  0  0  0  0
  8  9  1  0  0  0  0
  9 10  1  0  0  0  0
 10 11  1  1  0  0  0
 10 12  1  0  0  0  0
 10 13  1  0  0  0  0
 11 14  1  0  0  0  0
 12 15  1  0  0  0  0
 13 16  1  0  0  0  0
 14 17  1  6  0  0  0
 16 18  1  0  0  0  0
 16 19  1  0  0  0  0
 17 20  1  0  0  0  0
 18 21  2  0  0  0  0
 19 22  2  0  0  0  0
 20 23  1  0  0  0  0
 23 24  2  0  0  0  0
 23 25  1  0  0  0  0
 24 26  1  0  0  0  0
 25 27  2  0  0  0  0
 26 28  2  0  0  0  0
 28 29  1  0  0  0  0
  6  7  1  0  0  0  0
 14 15  1  0  0  0  0
 21 22  1  0  0  0  0
 27 28  1  0  0  0  0
M  END
>  <MolRegNo>
114153

>  <m>
=

>  <Value>
13

>  <Unit>
nM

>  <Type>
Ki

>  <pValue>
7.89

>  <Ligand Efficiency>
0.37

>  <Binding Efficiency>
18.34

>  <Surface Efficiency>
12.66

>  <Assay Index>
51256

>  <Assay Category>


>  <Assay Organism>


>  <Target ID>
65

>  <Target Name>
Cytochrome P450 19A1

>  <Target Organism>
Homo sapiens

>  <Target Description>
Target is a single protein chain

>  <Sequence Accession>
P11511

>  <Reference>
J Med Chem 36 (15), 2235-2237 (1993)

>  <Pubmed ID>
8340925

>  <DOI>
10.1021/jm00067a022

$$$$
1385527
Actelion Java MolfileCreator 1.0

 24 28  0  0  1  0  0  0  0  0999 V2000
    0.0000   -0.0000   -0.0000 S   0  0  0  0  0  0  0  0  0  0  0  0
    0.7524   -1.2899   -0.0000 C   0  0  0  0  0  0  0  0  0  0  0  0
   -0.7524   -1.2899   -0.0000 C   0  0  0  0  0  0  0  0  0  0  0  0
    2.0423   -2.0184   -0.0000 C   0  0  0  0  0  0  0  0  0  0  0  0
    2.0543   -3.4994   -0.0000 C   0  0  0  0  0  0  0  0  0  0  0  0
    2.0304   -4.9804   -0.0000 C   0  0  0  0  0  0  0  0  0  0  0  0
    3.3442   -2.7350   -0.0000 C   0  0  0  0  0  0  0  0  0  0  0  0
    0.7405   -2.7231   -0.0000 C   0  0  0  0  0  0  0  0  0  0  0  0
    0.7286   -5.7090   -0.0000 C   0  0  0  0  0  0  0  0  0  0  0  0
    3.3083   -5.7209   -0.0000 C   0  0  0  0  0  0  0  0  0  0  0  0
    4.6341   -3.4875   -0.0000 C   0  0  0  0  0  0  0  0  0  0  0  0
    3.3083   -1.2063   -0.0000 C   0  0  0  0  0  0  0  0  0  0  0  0
   -0.5613   -3.4755   -0.0000 C   0  0  0  0  0  0  0  0  0  0  0  0
   -0.5733   -4.9565   -0.0000 C   0  0  0  0  0  0  0  0  0  0  0  0
    4.6102   -4.9685   -0.0000 C   0  0  0  0  0  0  0  0  0  0  0  0
    5.9239   -2.7350   -0.0000 C   0  0  0  0  0  0  0  0  0  0  0  0
    4.6460   -0.4658   -0.0000 C   0  0  0  0  0  0  0  0  0  0  0  0
   -1.8990   -5.6851   -0.0000 O   0  0  0  0  0  0  0  0  0  0  0  0
    5.9478   -1.2302   -0.0000 C   0  0  0  0  0  0  0  0  0  0  0  0
    7.3333   -3.2128   -0.0000 C   0  0  0  0  0  0  0  0  0  0  0  0
    7.3691   -0.7644   -0.0000 C   0  0  0  0  0  0  0  0  0  0  0  0
    5.9239    0.2986   -0.0000 C   0  0  0  0  0  0  0  0  0  0  0  0
    8.2290   -2.0065   -0.0000 C   0  0  0  0  0  0  0  0  0  0  0  0
    7.8468    0.6569   -0.0000 O   0  0  0  0  0  0  0  0  0  0  0  0
  1  2  1  0  0  0  0
  1  3  1  0  0  0  0
  2  4  1  6  0  0  0
  5  4  1  1  0  0  0
  5  6  1  0  0  0  0
  5  7  1  0  0  0  0
  5  8  1  0  0  0  0
  6  9  2  0  0  0  0
  6 10  1  0  0  0  0
  7 11  1  0  0  0  0
  7 12  1  1  0  0  0
  8 13  1  0  0  0  0
  9 14  1  0  0  0  0
 10 15  1  0  0  0  0
 11 16  1  0  0  0  0
 12 17  1  0  0  0  0
 14 18  2  0  0  0  0
 16 19  1  0  0  0  0
 16 20  1  1  0  0  0
 19 21  1  0  0  0  0
 19 22  1  1  0  0  0
 20 23  1  0  0  0  0
 21 24  2  0  0  0  0
  2  3  1  0  0  0  0
 11 15  1  6  0  0  0
 13 14  1  0  0  0  0
 17 19  1  0  0  0  0
 21 23  1  0  0  0  0
M  END
>  <MolRegNo>
1385527

>  <m>
=

>  <Value>
206

>  <Unit>
nM

>  <Type>
Ki

>  <pValue>
6.69

>  <Ligand Efficiency>
0.38

>  <Binding Efficiency>
19.41

>  <Surface Efficiency>
19.58

>  <Assay Index>
50937

>  <Assay Category>


>  <Assay Organism>
Homo sapiens

>  <Target ID>
65

>  <Target Name>
Cytochrome P450 19A1

>  <Target Organism>
Homo sapiens

>  <Target Description>
Target is a single protein chain

>  <Sequence Accession>
P11511

>  <Reference>
J Med Chem 34 (4), 1344-1349 (1991)

>  <Pubmed ID>
2016709

>  <DOI>
10.1021/jm00108a016

$$$$
37968
Actelion Java MolfileCreator 1.0

 23 27  0  0  1  0  0  0  0  0999 V2000
    0.0000   -0.0000   -0.0000 S   0  0  0  0  0  0  0  0  0  0  0  0
    0.5989   -1.0511   -0.0000 C   0  0  0  0  0  0  0  0  0  0  0  0
   -0.6233   -1.0511   -0.0000 C   0  0  0  0  0  0  0  0  0  0  0  0
    0.6111   -2.5665   -0.0000 C   0  0  0  0  0  0  0  0  0  0  0  0
    0.5989   -4.0820   -0.0000 C   0  0  0  0  0  0  0  0  0  0  0  0
    1.9310   -1.7843   -0.0000 C   0  0  0  0  0  0  0  0  0  0  0  0
   -0.7333   -1.7843   -0.0000 C   0  0  0  0  0  0  0  0  0  0  0  0
   -0.7455   -4.8275   -0.0000 C   0  0  0  0  0  0  0  0  0  0  0  0
    1.8943   -4.8519   -0.0000 C   0  0  0  0  0  0  0  0  0  0  0  0
    3.2509   -2.5665   -0.0000 C   0  0  0  0  0  0  0  0  0  0  0  0
    1.8943   -0.2200   -0.0000 C   0  0  0  0  0  0  0  0  0  0  0  0
   -2.0532   -2.5543   -0.0000 C   0  0  0  0  0  0  0  0  0  0  0  0
   -2.0654   -4.0575   -0.0000 C   0  0  0  0  0  0  0  0  0  0  0  0
    3.2265   -4.0698   -0.0000 C   0  0  0  0  0  0  0  0  0  0  0  0
    4.5709   -1.7966   -0.0000 C   0  0  0  0  0  0  0  0  0  0  0  0
    3.2754    0.5377   -0.0000 C   0  0  0  0  0  0  0  0  0  0  0  0
   -3.4220   -4.8031   -0.0000 O   0  0  0  0  0  0  0  0  0  0  0  0
    4.5953   -0.2567   -0.0000 C   0  0  0  0  0  0  0  0  0  0  0  0
    6.0130   -2.2854   -0.0000 C   0  0  0  0  0  0  0  0  0  0  0  0
    6.0374    0.2200   -0.0000 C   0  0  0  0  0  0  0  0  0  0  0  0
    4.5586    1.3077   -0.0000 C   0  0  0  0  0  0  0  0  0  0  0  0
    6.9296   -1.0388   -0.0000 C   0  0  0  0  0  0  0  0  0  0  0  0
    6.5263    1.6866   -0.0000 O   0  0  0  0  0  0  0  0  0  0  0  0
  1  2  1  0  0  0  0
  1  3  1  0  0  0  0
  4  2  1  1  0  0  0
  4  5  1  0  0  0  0
  4  6  1  0  0  0  0
  4  7  1  0  0  0  0
  5  8  2  0  0  0  0
  5  9  1  0  0  0  0
  6 10  1  0  0  0  0
  6 11  1  0  0  0  0
  7 12  1  0  0  0  0
  8 13  1  0  0  0  0
  9 14  1  0  0  0  0
 10 15  1  0  0  0  0
 11 16  1  0  0  0  0
 13 17  2  0  0  0  0
 15 18  1  0  0  0  0
 15 19  1  0  0  0  0
 18 20  1  0  0  0  0
 18 21  1  1  0  0  0
 19 22  1  0  0  0  0
 20 23  2  0  0  0  0
  2  3  1  0  0  0  0
 10 14  1  0  0  0  0
 12 13  1  0  0  0  0
 16 18  1  0  0  0  0
 20 22  1  0  0  0  0
M  END
>  <MolRegNo>
37968

>  <m>
=

>  <Value>
75

>  <Unit>
nM

>  <Type>
Ki

>  <pValue>
7.12

>  <Ligand Efficiency>
0.42

>  <Binding Efficiency>
21.56

>  <Surface Efficiency>
20.87

>  <Assay Index>
50937

>  <Assay Category>


>  <Assay Organism>
Homo sapiens

>  <Target ID>
65

>  <Target Name>
Cytochrome P450 19A1

>  <Target Organism>
Homo sapiens

>  <Target Description>
Target is a single protein chain

>  <Sequence Accession>
P11511

>  <Reference>
J Med Chem 34 (4), 1344-1349 (1991)

>  <Pubmed ID>
2016709

>  <DOI>
10.1021/jm00108a016

$$$$
1385523
Actelion Java MolfileCreator 1.0

 24 28  0  0  1  0  0  0  0  0999 V2000
    0.0000   -0.0000   -0.0000 S   0  0  0  0  0  0  0  0  0  0  0  0
    0.7524   -1.2899   -0.0000 C   0  0  0  0  0  0  0  0  0  0  0  0
   -0.7524   -1.2899   -0.0000 C   0  0  0  0  0  0  0  0  0  0  0  0
    2.0423   -2.0184   -0.0000 C   0  0  0  0  0  0  0  0  0  0  0  0
    2.0543   -3.4994   -0.0000 C   0  0  0  0  0  0  0  0  0  0  0  0
    2.0304   -4.9804   -0.0000 C   0  0  0  0  0  0  0  0  0  0  0  0
    3.3442   -2.7350   -0.0000 C   0  0  0  0  0  0  0  0  0  0  0  0
    0.7405   -2.7231   -0.0000 C   0  0  0  0  0  0  0  0  0  0  0  0
    0.7286   -5.7090   -0.0000 C   0  0  0  0  0  0  0  0  0  0  0  0
    3.3083   -5.7209   -0.0000 C   0  0  0  0  0  0  0  0  0  0  0  0
    4.6341   -3.4875   -0.0000 C   0  0  0  0  0  0  0  0  0  0  0  0
    3.3083   -1.2063   -0.0000 C   0  0  0  0  0  0  0  0  0  0  0  0
   -0.5613   -3.4755   -0.0000 C   0  0  0  0  0  0  0  0  0  0  0  0
   -0.5733   -4.9565   -0.0000 C   0  0  0  0  0  0  0  0  0  0  0  0
    4.6102   -4.9685   -0.0000 C   0  0  0  0  0  0  0  0  0  0  0  0
    5.9239   -2.7350   -0.0000 C   0  0  0  0  0  0  0  0  0  0  0  0
    4.6460   -0.4658   -0.0000 C   0  0  0  0  0  0  0  0  0  0  0  0
   -1.8990   -5.6851   -0.0000 O   0  0  0  0  0  0  0  0  0  0  0  0
    5.9478   -1.2302   -0.0000 C   0  0  0  0  0  0  0  0  0  0  0  0
    7.3333   -3.2128   -0.0000 C   0  0  0  0  0  0  0  0  0  0  0  0
    7.3691   -0.7644   -0.0000 C   0  0  0  0  0  0  0  0  0  0  0  0
    5.9239    0.2986   -0.0000 C   0  0  0  0  0  0  0  0  0  0  0  0
    8.2290   -2.0065   -0.0000 C   0  0  0  0  0  0  0  0  0  0  0  0
    7.8468    0.6569   -0.0000 O   0  0  0  0  0  0  0  0  0  0  0  0
  1  2  1  0  0  0  0
  1  3  1  0  0  0  0
  2  4  1  1  0  0  0
  5  4  1  1  0  0  0
  5  6  1  0  0  0  0
  5  7  1  0  0  0  0
  5  8  1  0  0  0  0
  6  9  2  0  0  0  0
  6 10  1  0  0  0  0
  7 11  1  0  0  0  0
  7 12  1  1  0  0  0
  8 13  1  0  0  0  0
  9 14  1  0  0  0  0
 10 15  1  0  0  0  0
 11 16  1  0  0  0  0
 12 17  1  0  0  0  0
 14 18  2  0  0  0  0
 16 19  1  0  0  0  0
 16 20  1  1  0  0  0
 19 21  1  0  0  0  0
 19 22  1  1  0  0  0
 20 23  1  0  0  0  0
 21 24  2  0  0  0  0
  2  3  1  0  0  0  0
 11 15  1  6  0  0  0
 13 14  1  0  0  0  0
 17 19  1  0  0  0  0
 21 23  1  0  0  0  0
M  END
>  <MolRegNo>
1385523

>  <m>
=

>  <Value>
22

>  <Unit>
nM

>  <Type>
Ki

>  <pValue>
7.66

>  <Ligand Efficiency>
0.44

>  <Binding Efficiency>
22.23

>  <Surface Efficiency>
22.43

>  <Assay Index>
50937

>  <Assay Category>


>  <Assay Organism>
Homo sapiens

>  <Target ID>
65

>  <Target Name>
Cytochrome P450 19A1

>  <Target Organism>
Homo sapiens

>  <Target Description>
Target is a single protein chain

>  <Sequence Accession>
P11511

>  <Reference>
J Med Chem 34 (4), 1344-1349 (1991)

>  <Pubmed ID>
2016709

>  <DOI>
10.1021/jm00108a016

$$$$
37204
Actelion Java MolfileCreator 1.0

 23 27  0  0  1  0  0  0  0  0999 V2000
    0.0000   -0.0000   -0.0000 O   0  0  0  0  0  0  0  0  0  0  0  0
    1.3302    0.7688   -0.0000 C   0  0  0  0  0  0  0  0  0  0  0  0
    2.6237    0.0244   -0.0000 C   0  0  0  0  0  0  0  0  0  0  0  0
    1.3180    2.3064   -0.0000 C   0  0  0  0  0  0  0  0  0  0  0  0
    3.9417    0.7932   -0.0000 C   0  0  0  0  0  0  0  0  0  0  0  0
    2.6115    3.0875   -0.0000 C   0  0  0  0  0  0  0  0  0  0  0  0
    3.9295    2.3308   -0.0000 C   0  0  0  0  0  0  0  0  0  0  0  0
    5.2353    0.0244   -0.0000 C   0  0  0  0  0  0  0  0  0  0  0  0
    5.2475    3.1119   -0.0000 C   0  0  0  0  0  0  0  0  0  0  0  0
    3.8929    3.8685   -0.0000 C   0  0  0  0  0  0  0  0  0  0  0  0
    6.5654    0.8054   -0.0000 C   0  0  0  0  0  0  0  0  0  0  0  0
    6.5654    2.3308   -0.0000 C   0  0  0  0  0  0  0  0  0  0  0  0
    5.2109    4.6739   -0.0000 C   0  0  0  0  0  0  0  0  0  0  0  0
    3.2705    4.9424   -0.0000 O   0  0  0  0  0  0  0  0  0  0  0  0
    2.6603    3.8807   -0.0000 C   0  0  0  0  0  0  0  0  0  0  0  0
    7.8834    3.0997   -0.0000 C   0  0  0  0  0  0  0  0  0  0  0  0
    6.5898    5.4305   -0.0000 C   0  0  0  0  0  0  0  0  0  0  0  0
    7.9078    4.6373   -0.0000 C   0  0  0  0  0  0  0  0  0  0  0  0
    9.3234    2.6115   -0.0000 C   0  0  0  0  0  0  0  0  0  0  0  0
    9.3478    5.1132   -0.0000 C   0  0  0  0  0  0  0  0  0  0  0  0
    7.8712    6.1993   -0.0000 C   0  0  0  0  0  0  0  0  0  0  0  0
   10.2387    3.8563   -0.0000 C   0  0  0  0  0  0  0  0  0  0  0  0
    9.8359    6.5776   -0.0000 O   0  0  0  0  0  0  0  0  0  0  0  0
  1  2  2  0  0  0  0
  2  3  1  0  0  0  0
  2  4  1  0  0  0  0
  3  5  2  0  0  0  0
  4  6  1  0  0  0  0
  5  7  1  0  0  0  0
  5  8  1  0  0  0  0
  7  9  1  0  0  0  0
  7 10  1  1  0  0  0
  8 11  1  0  0  0  0
  9 12  1  0  0  0  0
  9 13  1  0  0  0  0
 10 14  1  0  0  0  0
 10 15  1  0  0  0  0
 12 16  1  0  0  0  0
 13 17  1  0  0  0  0
 16 18  1  0  0  0  0
 16 19  1  0  0  0  0
 18 20  1  0  0  0  0
 18 21  1  1  0  0  0
 19 22  1  0  0  0  0
 20 23  2  0  0  0  0
  6  7  1  0  0  0  0
 11 12  1  0  0  0  0
 14 15  1  0  0  0  0
 17 18  1  0  0  0  0
 20 22  1  0  0  0  0
M  END
>  <MolRegNo>
37204

>  <m>
=

>  <Value>
75

>  <Unit>
nM

>  <Type>
Ki

>  <pValue>
7.12

>  <Ligand Efficiency>
0.42

>  <Binding Efficiency>
22.66

>  <Surface Efficiency>
15.27

>  <Assay Index>
50937

>  <Assay Category>


>  <Assay Organism>
Homo sapiens

>  <Target ID>
65

>  <Target Name>
Cytochrome P450 19A1

>  <Target Organism>
Homo sapiens

>  <Target Description>
Target is a single protein chain

>  <Sequence Accession>
P11511

>  <Reference>
J Med Chem 34 (4), 1344-1349 (1991)

>  <Pubmed ID>
2016709

>  <DOI>
10.1021/jm00108a016

$$$$
115173
Actelion Java MolfileCreator 1.0

 25 28  0  0  1  0  0  0  0  0999 V2000
    0.0000   -0.0000   -0.0000 O   0  0  0  0  0  0  0  0  0  0  0  0
   -0.4852   -1.3966   -0.0000 C   0  0  0  0  0  0  0  0  0  0  0  0
   -1.9291   -1.8345   -0.0000 C   0  0  0  0  0  0  0  0  0  0  0  0
    0.3669   -2.6156   -0.0000 C   0  0  0  0  0  0  0  0  0  0  0  0
   -1.9647   -3.3139   -0.0000 C   0  0  0  0  0  0  0  0  0  0  0  0
   -3.2429   -1.0652   -0.0000 C   0  0  0  0  0  0  0  0  0  0  0  0
   -1.9528   -0.3314   -0.0000 C   0  0  0  0  0  0  0  0  0  0  0  0
   -0.5326   -3.8109   -0.0000 C   0  0  0  0  0  0  0  0  0  0  0  0
   -3.2665   -4.0595   -0.0000 C   0  0  0  0  0  0  0  0  0  0  0  0
   -4.5566   -1.7990   -0.0000 C   0  0  0  0  0  0  0  0  0  0  0  0
   -4.5802   -3.2902   -0.0000 C   0  0  0  0  0  0  0  0  0  0  0  0
   -3.2784   -5.5389   -0.0000 C   0  0  0  0  0  0  0  0  0  0  0  0
   -5.8821   -4.0477   -0.0000 C   0  0  0  0  0  0  0  0  0  0  0  0
   -4.5802   -6.2727   -0.0000 C   0  0  0  0  0  0  0  0  0  0  0  0
   -5.8940   -5.5389   -0.0000 C   0  0  0  0  0  0  0  0  0  0  0  0
   -7.1840   -3.2902   -0.0000 C   0  0  0  0  0  0  0  0  0  0  0  0
   -5.9058   -2.5446   -0.0000 C   0  0  0  0  0  0  0  0  0  0  0  0
   -4.5802   -7.7521   -0.0000 C   0  0  0  0  0  0  0  0  0  0  0  0
   -7.1958   -6.2727   -0.0000 C   0  0  0  0  0  0  0  0  0  0  0  0
   -8.4977   -4.0240   -0.0000 C   0  0  0  0  0  0  0  0  0  0  0  0
   -5.8821   -8.4977   -0.0000 C   0  0  0  0  0  0  0  0  0  0  0  0
   -8.5095   -5.5034   -0.0000 C   0  0  0  0  0  0  0  0  0  0  0  0
   -7.1840   -7.7402   -0.0000 C   0  0  0  0  0  0  0  0  0  0  0  0
   -8.4859   -8.4859   -0.0000 C   0  0  0  0  0  0  0  0  0  0  0  0
   -9.7996   -7.7284   -0.0000 C   0  0  0  0  0  0  0  0  0  0  0  0
  1  2  1  0  0  0  0
  2  3  1  0  0  0  0
  2  4  1  0  0  0  0
  3  5  1  0  0  0  0
  3  6  1  0  0  0  0
  3  7  1  0  0  0  0
  4  8  1  0  0  0  0
  5  9  1  0  0  0  0
  6 10  1  0  0  0  0
  9 11  1  0  0  0  0
  9 12  1  0  0  0  0
 11 13  1  0  0  0  0
 12 14  1  0  0  0  0
 13 15  1  0  0  0  0
 13 16  1  0  0  0  0
 13 17  1  0  0  0  0
 14 18  1  6  0  0  0
 15 19  2  0  0  0  0
 16 20  1  0  0  0  0
 18 21  1  0  0  0  0
 19 22  1  0  0  0  0
 21 23  1  0  0  0  0
 23 24  1  0  0  0  0
 24 25  1  0  0  0  0
  5  8  1  0  0  0  0
 10 11  1  0  0  0  0
 14 15  1  0  0  0  0
 20 22  1  0  0  0  0
M  END
>  <MolRegNo>
115173

>  <m>
=

>  <Value>
44

>  <Unit>
nM

>  <Type>
Ki

>  <pValue>
7.36

>  <Ligand Efficiency>
0.4

>  <Binding Efficiency>
21.35

>  <Surface Efficiency>
36.36

>  <Assay Index>
51103

>  <Assay Category>


>  <Assay Organism>


>  <Target ID>
65

>  <Target Name>
Cytochrome P450 19A1

>  <Target Organism>
Homo sapiens

>  <Target Description>
Target is a single protein chain

>  <Sequence Accession>
P11511

>  <Reference>
J Med Chem 39 (11), 2245-2252 (1996)

>  <Pubmed ID>
8667367

>  <DOI>
10.1021/jm960047o

$$$$
115037
Actelion Java MolfileCreator 1.0

 28 31  0  0  1  0  0  0  0  0999 V2000
    0.0000   -0.0000   -0.0000 O   0  0  0  0  0  0  0  0  0  0  0  0
   -0.4848   -1.3952   -0.0000 C   0  0  0  0  0  0  0  0  0  0  0  0
   -1.9272   -1.8326   -0.0000 C   0  0  0  0  0  0  0  0  0  0  0  0
    0.3784   -2.6012   -0.0000 C   0  0  0  0  0  0  0  0  0  0  0  0
   -1.9627   -3.3224   -0.0000 C   0  0  0  0  0  0  0  0  0  0  0  0
   -3.2396   -1.0641   -0.0000 C   0  0  0  0  0  0  0  0  0  0  0  0
   -1.9509   -0.3311   -0.0000 C   0  0  0  0  0  0  0  0  0  0  0  0
   -0.5321   -3.8072   -0.0000 C   0  0  0  0  0  0  0  0  0  0  0  0
   -3.2633   -4.0673   -0.0000 C   0  0  0  0  0  0  0  0  0  0  0  0
   -4.5520   -1.7972   -0.0000 C   0  0  0  0  0  0  0  0  0  0  0  0
   -4.5757   -3.2987   -0.0000 C   0  0  0  0  0  0  0  0  0  0  0  0
   -3.2751   -5.5570   -0.0000 C   0  0  0  0  0  0  0  0  0  0  0  0
   -5.8763   -4.0554   -0.0000 C   0  0  0  0  0  0  0  0  0  0  0  0
   -4.5875   -6.2901   -0.0000 C   0  0  0  0  0  0  0  0  0  0  0  0
   -5.8881   -5.5334   -0.0000 C   0  0  0  0  0  0  0  0  0  0  0  0
   -7.1887   -3.2987   -0.0000 C   0  0  0  0  0  0  0  0  0  0  0  0
   -5.8999   -2.5420   -0.0000 C   0  0  0  0  0  0  0  0  0  0  0  0
   -4.5875   -7.7680   -0.0000 C   0  0  0  0  0  0  0  0  0  0  0  0
   -7.2005   -6.2664   -0.0000 C   0  0  0  0  0  0  0  0  0  0  0  0
   -8.4892   -4.0318   -0.0000 C   0  0  0  0  0  0  0  0  0  0  0  0
   -5.8999   -8.5129   -0.0000 C   0  0  0  0  0  0  0  0  0  0  0  0
   -8.5011   -5.4979   -0.0000 C   0  0  0  0  0  0  0  0  0  0  0  0
   -7.2005   -7.7562   -0.0000 C   0  0  0  0  0  0  0  0  0  0  0  0
   -8.5011   -8.5011   -0.0000 C   0  0  0  0  0  0  0  0  0  0  0  0
   -9.8017   -7.7444   -0.0000 C   0  0  0  0  0  0  0  0  0  0  0  0
  -11.1022   -8.4774   -0.0000 C   0  0  0  0  0  0  0  0  0  0  0  0
  -12.4028   -7.7207   -0.0000 C   0  0  0  0  0  0  0  0  0  0  0  0
  -13.7034   -8.4656   -0.0000 C   0  0  0  0  0  0  0  0  0  0  0  0
  1  2  2  0  0  0  0
  2  3  1  0  0  0  0
  2  4  1  0  0  0  0
  3  5  1  0  0  0  0
  3  6  1  0  0  0  0
  3  7  1  0  0  0  0
  4  8  1  0  0  0  0
  5  9  1  0  0  0  0
  6 10  1  0  0  0  0
  9 11  1  0  0  0  0
  9 12  1  0  0  0  0
 11 13  1  0  0  0  0
 12 14  1  0  0  0  0
 13 15  1  0  0  0  0
 13 16  1  0  0  0  0
 13 17  1  0  0  0  0
 14 18  1  6  0  0  0
 15 19  2  0  0  0  0
 16 20  1  0  0  0  0
 18 21  1  0  0  0  0
 19 22  1  0  0  0  0
 21 23  1  0  0  0  0
 23 24  1  0  0  0  0
 24 25  1  0  0  0  0
 25 26  1  0  0  0  0
 26 27  1  0  0  0  0
 27 28  1  0  0  0  0
  5  8  1  0  0  0  0
 10 11  1  0  0  0  0
 14 15  1  0  0  0  0
 20 22  1  0  0  0  0
M  END
>  <MolRegNo>
115037

>  <m>
=

>  <Value>
4100

>  <Unit>
nM

>  <Type>
Ki

>  <pValue>
5.39

>  <Ligand Efficiency>
0.26

>  <Binding Efficiency>
14.01

>  <Surface Efficiency>
31.56

>  <Assay Index>
51103

>  <Assay Category>


>  <Assay Organism>


>  <Target ID>
65

>  <Target Name>
Cytochrome P450 19A1

>  <Target Organism>
Homo sapiens

>  <Target Description>
Target is a single protein chain

>  <Sequence Accession>
P11511

>  <Reference>
J Med Chem 39 (11), 2245-2252 (1996)

>  <Pubmed ID>
8667367

>  <DOI>
10.1021/jm960047o

$$$$
114256
Actelion Java MolfileCreator 1.0

 28 31  0  0  1  0  0  0  0  0999 V2000
    0.0000   -0.0000   -0.0000 O   0  0  0  0  0  0  0  0  0  0  0  0
   -0.4851   -1.3961   -0.0000 C   0  0  0  0  0  0  0  0  0  0  0  0
   -1.9404   -1.8339   -0.0000 C   0  0  0  0  0  0  0  0  0  0  0  0
    0.3786   -2.6148   -0.0000 C   0  0  0  0  0  0  0  0  0  0  0  0
   -1.9641   -3.3129   -0.0000 C   0  0  0  0  0  0  0  0  0  0  0  0
   -3.2537   -1.0649   -0.0000 C   0  0  0  0  0  0  0  0  0  0  0  0
   -1.9522   -0.3313   -0.0000 C   0  0  0  0  0  0  0  0  0  0  0  0
   -0.5324   -3.8098   -0.0000 C   0  0  0  0  0  0  0  0  0  0  0  0
   -3.2774   -4.0583   -0.0000 C   0  0  0  0  0  0  0  0  0  0  0  0
   -4.5670   -1.7984   -0.0000 C   0  0  0  0  0  0  0  0  0  0  0  0
   -4.5907   -3.2892   -0.0000 C   0  0  0  0  0  0  0  0  0  0  0  0
   -3.2774   -5.5372   -0.0000 C   0  0  0  0  0  0  0  0  0  0  0  0
   -5.8922   -4.0464   -0.0000 C   0  0  0  0  0  0  0  0  0  0  0  0
   -4.5907   -6.2708   -0.0000 C   0  0  0  0  0  0  0  0  0  0  0  0
   -5.8922   -5.5372   -0.0000 C   0  0  0  0  0  0  0  0  0  0  0  0
   -7.1937   -3.2892   -0.0000 C   0  0  0  0  0  0  0  0  0  0  0  0
   -5.9040   -2.5438   -0.0000 C   0  0  0  0  0  0  0  0  0  0  0  0
   -4.6025   -7.7498   -0.0000 C   0  0  0  0  0  0  0  0  0  0  0  0
   -7.2055   -6.2590   -0.0000 C   0  0  0  0  0  0  0  0  0  0  0  0
   -8.4952   -4.0228   -0.0000 C   0  0  0  0  0  0  0  0  0  0  0  0
   -5.9040   -8.4952   -0.0000 C   0  0  0  0  0  0  0  0  0  0  0  0
   -8.5070   -5.5017   -0.0000 C   0  0  0  0  0  0  0  0  0  0  0  0
   -7.2055   -7.7379   -0.0000 C   0  0  0  0  0  0  0  0  0  0  0  0
   -8.5070   -8.4833   -0.0000 C   0  0  0  0  0  0  0  0  0  0  0  0
   -9.8085   -7.7261   -0.0000 C   0  0  0  0  0  0  0  0  0  0  0  0
  -11.1100   -8.4597   -0.0000 C   0  0  0  0  0  0  0  0  0  0  0  0
  -12.4233   -7.7024   -0.0000 C   0  0  0  0  0  0  0  0  0  0  0  0
  -13.7248   -8.4478   -0.0000 C   0  0  0  0  0  0  0  0  0  0  0  0
  1  2  2  0  0  0  0
  2  3  1  0  0  0  0
  2  4  1  0  0  0  0
  3  5  1  0  0  0  0
  3  6  1  0  0  0  0
  3  7  1  0  0  0  0
  4  8  1  0  0  0  0
  5  9  1  0  0  0  0
  6 10  1  0  0  0  0
  9 11  1  0  0  0  0
  9 12  1  0  0  0  0
 11 13  1  0  0  0  0
 12 14  1  0  0  0  0
 13 15  1  0  0  0  0
 13 16  1  0  0  0  0
 13 17  1  0  0  0  0
 14 18  1  1  0  0  0
 15 19  2  0  0  0  0
 16 20  1  0  0  0  0
 18 21  1  0  0  0  0
 19 22  1  0  0  0  0
 21 23  1  0  0  0  0
 23 24  1  0  0  0  0
 24 25  1  0  0  0  0
 25 26  1  0  0  0  0
 26 27  1  0  0  0  0
 27 28  1  0  0  0  0
  5  8  1  0  0  0  0
 10 11  1  0  0  0  0
 14 15  1  0  0  0  0
 20 22  1  0  0  0  0
M  END
>  <MolRegNo>
114256

>  <m>
=

>  <Value>
2600

>  <Unit>
nM

>  <Type>
Ki

>  <pValue>
5.58

>  <Ligand Efficiency>
0.27

>  <Binding Efficiency>
14.52

>  <Surface Efficiency>
32.72

>  <Assay Index>
51103

>  <Assay Category>


>  <Assay Organism>


>  <Target ID>
65

>  <Target Name>
Cytochrome P450 19A1

>  <Target Organism>
Homo sapiens

>  <Target Description>
Target is a single protein chain

>  <Sequence Accession>
P11511

>  <Reference>
J Med Chem 39 (11), 2245-2252 (1996)

>  <Pubmed ID>
8667367

>  <DOI>
10.1021/jm960047o

$$$$
115759
Actelion Java MolfileCreator 1.0

 25 28  0  0  1  0  0  0  0  0999 V2000
    0.0000   -0.0000   -0.0000 O   0  0  0  0  0  0  0  0  0  0  0  0
   -0.4854   -1.3969   -0.0000 C   0  0  0  0  0  0  0  0  0  0  0  0
   -1.9297   -1.8350   -0.0000 C   0  0  0  0  0  0  0  0  0  0  0  0
    0.3670   -2.6163   -0.0000 C   0  0  0  0  0  0  0  0  0  0  0  0
   -1.9652   -3.3148   -0.0000 C   0  0  0  0  0  0  0  0  0  0  0  0
   -3.2437   -1.0655   -0.0000 C   0  0  0  0  0  0  0  0  0  0  0  0
   -1.9533   -0.3315   -0.0000 C   0  0  0  0  0  0  0  0  0  0  0  0
   -0.5327   -3.8120   -0.0000 C   0  0  0  0  0  0  0  0  0  0  0  0
   -3.2674   -4.0606   -0.0000 C   0  0  0  0  0  0  0  0  0  0  0  0
   -4.5578   -1.7994   -0.0000 C   0  0  0  0  0  0  0  0  0  0  0  0
   -4.5815   -3.2911   -0.0000 C   0  0  0  0  0  0  0  0  0  0  0  0
   -3.2792   -5.5404   -0.0000 C   0  0  0  0  0  0  0  0  0  0  0  0
   -5.8837   -4.0487   -0.0000 C   0  0  0  0  0  0  0  0  0  0  0  0
   -4.5815   -6.2743   -0.0000 C   0  0  0  0  0  0  0  0  0  0  0  0
   -5.8955   -5.5404   -0.0000 C   0  0  0  0  0  0  0  0  0  0  0  0
   -7.1859   -3.2911   -0.0000 C   0  0  0  0  0  0  0  0  0  0  0  0
   -5.9074   -2.5453   -0.0000 C   0  0  0  0  0  0  0  0  0  0  0  0
   -4.6051   -7.7541   -0.0000 C   0  0  0  0  0  0  0  0  0  0  0  0
   -7.1977   -6.2743   -0.0000 C   0  0  0  0  0  0  0  0  0  0  0  0
   -8.5000   -4.0251   -0.0000 C   0  0  0  0  0  0  0  0  0  0  0  0
   -5.9074   -8.4881   -0.0000 C   0  0  0  0  0  0  0  0  0  0  0  0
   -8.5118   -5.5049   -0.0000 C   0  0  0  0  0  0  0  0  0  0  0  0
   -7.2096   -7.7305   -0.0000 C   0  0  0  0  0  0  0  0  0  0  0  0
   -8.5236   -8.4526   -0.0000 C   0  0  0  0  0  0  0  0  0  0  0  0
   -9.8259   -7.6831   -0.0000 C   0  0  0  0  0  0  0  0  0  0  0  0
  1  2  1  0  0  0  0
  2  3  1  0  0  0  0
  2  4  1  0  0  0  0
  3  5  1  0  0  0  0
  3  6  1  0  0  0  0
  3  7  1  0  0  0  0
  4  8  1  0  0  0  0
  5  9  1  0  0  0  0
  6 10  1  0  0  0  0
  9 11  1  0  0  0  0
  9 12  1  0  0  0  0
 11 13  1  0  0  0  0
 12 14  1  0  0  0  0
 13 15  1  0  0  0  0
 13 16  1  0  0  0  0
 13 17  1  0  0  0  0
 14 18  1  1  0  0  0
 15 19  2  0  0  0  0
 16 20  1  0  0  0  0
 18 21  1  0  0  0  0
 19 22  1  0  0  0  0
 21 23  1  0  0  0  0
 23 24  1  0  0  0  0
 24 25  1  0  0  0  0
  5  8  1  0  0  0  0
 10 11  1  0  0  0  0
 14 15  1  0  0  0  0
 20 22  1  0  0  0  0
M  END
>  <MolRegNo>
115759

>  <m>
=

>  <Value>
100

>  <Unit>
nM

>  <Type>
Ki

>  <pValue>
7

>  <Ligand Efficiency>
0.38

>  <Binding Efficiency>
20.31

>  <Surface Efficiency>
34.6

>  <Assay Index>
51103

>  <Assay Category>


>  <Assay Organism>


>  <Target ID>
65

>  <Target Name>
Cytochrome P450 19A1

>  <Target Organism>
Homo sapiens

>  <Target Description>
Target is a single protein chain

>  <Sequence Accession>
P11511

>  <Reference>
J Med Chem 39 (11), 2245-2252 (1996)

>  <Pubmed ID>
8667367

>  <DOI>
10.1021/jm960047o

$$$$
37987
Actelion Java MolfileCreator 1.0

 21 24  0  0  0  0  0  0  0  0999 V2000
    0.0000   -0.0000   -0.0000 O   0  0  0  0  0  0  0  0  0  0  0  0
    0.7482   -1.2946   -0.0000 C   0  0  0  0  0  0  0  0  0  0  0  0
    2.2447   -1.2827   -0.0000 C   0  0  0  0  0  0  0  0  0  0  0  0
   -0.0119   -2.5891   -0.0000 C   0  0  0  0  0  0  0  0  0  0  0  0
    2.9811   -2.5773   -0.0000 C   0  0  0  0  0  0  0  0  0  0  0  0
    2.9811    0.0356   -0.0000 C   0  0  0  0  0  0  0  0  0  0  0  0
    0.7364   -3.8837   -0.0000 C   0  0  0  0  0  0  0  0  0  0  0  0
    2.2210   -3.8718   -0.0000 O   0  0  0  0  0  0  0  0  0  0  0  0
    4.4775   -2.5654   -0.0000 C   0  0  0  0  0  0  0  0  0  0  0  0
    4.4775    0.0475   -0.0000 C   0  0  0  0  0  0  0  0  0  0  0  0
   -0.0238   -5.1783   -0.0000 C   0  0  0  0  0  0  0  0  0  0  0  0
    5.2258   -1.2471   -0.0000 C   0  0  0  0  0  0  0  0  0  0  0  0
    5.2258   -3.8599   -0.0000 C   0  0  0  0  0  0  0  0  0  0  0  0
    0.7245   -6.4728   -0.0000 C   0  0  0  0  0  0  0  0  0  0  0  0
   -1.5440   -5.1664   -0.0000 C   0  0  0  0  0  0  0  0  0  0  0  0
    6.7223   -1.2352   -0.0000 C   0  0  0  0  0  0  0  0  0  0  0  0
    6.7223   -3.8481   -0.0000 C   0  0  0  0  0  0  0  0  0  0  0  0
   -0.0356   -7.7674   -0.0000 C   0  0  0  0  0  0  0  0  0  0  0  0
   -2.3041   -6.4610   -0.0000 C   0  0  0  0  0  0  0  0  0  0  0  0
    7.4586   -2.5298   -0.0000 C   0  0  0  0  0  0  0  0  0  0  0  0
   -1.5559   -7.7555   -0.0000 C   0  0  0  0  0  0  0  0  0  0  0  0
  1  2  2  0  0  0  0
  2  3  1  0  0  0  0
  2  4  1  0  0  0  0
  3  5  2  0  0  0  0
  3  6  1  0  0  0  0
  4  7  2  0  0  0  0
  5  8  1  0  0  0  0
  5  9  1  0  0  0  0
  6 10  2  0  0  0  0
  7 11  1  0  0  0  0
  9 12  1  0  0  0  0
  9 13  2  0  0  0  0
 11 14  2  0  0  0  0
 11 15  1  0  0  0  0
 12 16  2  0  0  0  0
 13 17  1  0  0  0  0
 14 18  1  0  0  0  0
 15 19  2  0  0  0  0
 16 20  1  0  0  0  0
 18 21  2  0  0  0  0
  7  8  1  0  0  0  0
 10 12  1  0  0  0  0
 17 20  2  0  0  0  0
 19 21  1  0  0  0  0
M  END
>  <MolRegNo>
37987

>  <m>
=

>  <Value>
20

>  <Unit>
nM

>  <Type>
Ki

>  <pValue>
7.7

>  <Ligand Efficiency>
0.5

>  <Binding Efficiency>
28.27

>  <Surface Efficiency>
25.48

>  <Assay Index>
50795

>  <Assay Category>


>  <Assay Organism>


>  <Target ID>
65

>  <Target Name>
Cytochrome P450 19A1

>  <Target Organism>
Homo sapiens

>  <Target Description>
Target is a single protein chain

>  <Sequence Accession>
P11511

>  <Reference>
J Med Chem 33 (11), 2933-2942 (1990)

>  <Pubmed ID>
2231592

>  <DOI>
10.1021/jm00173a001

$$$$
163432
Actelion Java MolfileCreator 1.0

 23 26  0  0  1  0  0  0  0  0999 V2000
    0.0000   -0.0000   -0.0000 S   0  0  0  0  0  0  0  0  0  0  0  0
    1.2881   -0.7335   -0.0000 C   0  0  0  0  0  0  0  0  0  0  0  0
   -0.0358    1.5207   -0.0000 C   0  0  0  0  0  0  0  0  0  0  0  0
    1.2702   -2.2184   -0.0000 C   0  0  0  0  0  0  0  0  0  0  0  0
    1.2523   -3.7032   -0.0000 C   0  0  0  0  0  0  0  0  0  0  0  0
    2.5583   -1.4491   -0.0000 C   0  0  0  0  0  0  0  0  0  0  0  0
   -0.0537   -1.4491   -0.0000 C   0  0  0  0  0  0  0  0  0  0  0  0
   -0.0537   -4.4367   -0.0000 C   0  0  0  0  0  0  0  0  0  0  0  0
    2.5404   -4.4367   -0.0000 C   0  0  0  0  0  0  0  0  0  0  0  0
    3.8285   -2.2005   -0.0000 C   0  0  0  0  0  0  0  0  0  0  0  0
    2.5225    0.0895   -0.0000 C   0  0  0  0  0  0  0  0  0  0  0  0
   -1.3775   -2.1826   -0.0000 C   0  0  0  0  0  0  0  0  0  0  0  0
   -1.3775   -3.6675   -0.0000 C   0  0  0  0  0  0  0  0  0  0  0  0
    3.8285   -3.6675   -0.0000 C   0  0  0  0  0  0  0  0  0  0  0  0
    5.1344   -1.2702   -0.0000 C   0  0  0  0  0  0  0  0  0  0  0  0
    3.8464    0.8229   -0.0000 C   0  0  0  0  0  0  0  0  0  0  0  0
   -2.7014   -4.4010   -0.0000 O   0  0  0  0  0  0  0  0  0  0  0  0
    5.1166    0.0537   -0.0000 C   0  0  0  0  0  0  0  0  0  0  0  0
    7.3886   -1.2523   -0.0000 C   0  0  0  0  0  0  0  0  0  0  0  0
    6.2436    0.7335   -0.0000 C   0  0  0  0  0  0  0  0  0  0  0  0
    5.0987    1.5743   -0.0000 C   0  0  0  0  0  0  0  0  0  0  0  0
    7.3707    0.0716   -0.0000 C   0  0  0  0  0  0  0  0  0  0  0  0
    6.2257    2.0752   -0.0000 O   0  0  0  0  0  0  0  0  0  0  0  0
  1  2  1  0  0  0  0
  1  3  1  0  0  0  0
  4  2  1  1  0  0  0
  4  5  1  0  0  0  0
  4  6  1  0  0  0  0
  4  7  1  0  0  0  0
  5  8  2  0  0  0  0
  5  9  1  0  0  0  0
  6 10  1  0  0  0  0
  6 11  1  0  0  0  0
  7 12  1  0  0  0  0
  8 13  1  0  0  0  0
  9 14  1  0  0  0  0
 10 15  1  0  0  0  0
 11 16  1  0  0  0  0
 13 17  2  0  0  0  0
 15 18  1  0  0  0  0
 15 19  1  0  0  0  0
 18 20  1  0  0  0  0
 18 21  1  1  0  0  0
 19 22  1  0  0  0  0
 20 23  2  0  0  0  0
 10 14  1  0  0  0  0
 12 13  1  0  0  0  0
 16 18  1  0  0  0  0
 20 22  1  0  0  0  0
M  END
>  <MolRegNo>
163432

>  <m>
=

>  <Value>
1

>  <Unit>
nM

>  <Type>
Ki

>  <pValue>
9

>  <Ligand Efficiency>
0.53

>  <Binding Efficiency>
27.07

>  <Surface Efficiency>
26.36

>  <Assay Index>
50795

>  <Assay Category>


>  <Assay Organism>


>  <Target ID>
65

>  <Target Name>
Cytochrome P450 19A1

>  <Target Organism>
Homo sapiens

>  <Target Description>
Target is a single protein chain

>  <Sequence Accession>
P11511

>  <Reference>
J Med Chem 33 (11), 2933-2942 (1990)

>  <Pubmed ID>
2231592

>  <DOI>
10.1021/jm00173a001

$$$$
617790
Actelion Java MolfileCreator 1.0

 21 24  0  0  0  0  0  0  0  0999 V2000
    0.0000   -0.0000   -0.0000 O   0  0  0  0  0  0  0  0  0  0  0  0
    1.4720    0.2730   -0.0000 C   0  0  0  0  0  0  0  0  0  0  0  0
    2.4336   -0.8666   -0.0000 C   0  0  0  0  0  0  0  0  0  0  0  0
    1.9706    1.6976   -0.0000 C   0  0  0  0  0  0  0  0  0  0  0  0
    3.9056   -0.5936   -0.0000 C   0  0  0  0  0  0  0  0  0  0  0  0
    3.4426    1.9706   -0.0000 C   0  0  0  0  0  0  0  0  0  0  0  0
    4.4042    0.8310   -0.0000 C   0  0  0  0  0  0  0  0  0  0  0  0
    4.8671   -1.7332   -0.0000 C   0  0  0  0  0  0  0  0  0  0  0  0
    5.8762    1.1040   -0.0000 C   0  0  0  0  0  0  0  0  0  0  0  0
    4.9028    2.2555   -0.0000 C   0  0  0  0  0  0  0  0  0  0  0  0
    6.3392   -1.4601   -0.0000 C   0  0  0  0  0  0  0  0  0  0  0  0
    6.8377   -0.0356   -0.0000 C   0  0  0  0  0  0  0  0  0  0  0  0
    6.3748    2.5285   -0.0000 C   0  0  0  0  0  0  0  0  0  0  0  0
    8.3097    0.2374   -0.0000 C   0  0  0  0  0  0  0  0  0  0  0  0
    7.8468    2.8016   -0.0000 C   0  0  0  0  0  0  0  0  0  0  0  0
    8.8083    1.6619   -0.0000 C   0  0  0  0  0  0  0  0  0  0  0  0
    9.4850   -0.6767   -0.0000 C   0  0  0  0  0  0  0  0  0  0  0  0
   10.3041    1.6263   -0.0000 C   0  0  0  0  0  0  0  0  0  0  0  0
    9.4494    3.0271   -0.0000 C   0  0  0  0  0  0  0  0  0  0  0  0
   10.7196    0.1781   -0.0000 C   0  0  0  0  0  0  0  0  0  0  0  0
   11.2182    2.8253   -0.0000 O   0  0  0  0  0  0  0  0  0  0  0  0
  1  2  2  0  0  0  0
  2  3  1  0  0  0  0
  2  4  1  0  0  0  0
  3  5  2  0  0  0  0
  4  6  2  0  0  0  0
  5  7  1  0  0  0  0
  5  8  1  0  0  0  0
  7  9  1  0  0  0  0
  7 10  1  1  0  0  0
  8 11  1  0  0  0  0
  9 12  1  0  0  0  0
  9 13  1  1  0  0  0
 12 14  1  0  0  0  0
 13 15  1  0  0  0  0
 14 16  1  0  0  0  0
 14 17  1  1  0  0  0
 16 18  1  0  0  0  0
 16 19  1  1  0  0  0
 17 20  1  0  0  0  0
 18 21  2  0  0  0  0
  6  7  1  0  0  0  0
 12 11  1  6  0  0  0
 15 16  1  0  0  0  0
 18 20  1  0  0  0  0
M  END
>  <MolRegNo>
617790

>  <m>
=

>  <Value>
320

>  <Unit>
nM

>  <Type>
Ki

>  <pValue>
6.5

>  <Ligand Efficiency>
0.42

>  <Binding Efficiency>
22.84

>  <Surface Efficiency>
19.02

>  <Assay Index>
50795

>  <Assay Category>


>  <Assay Organism>


>  <Target ID>
65

>  <Target Name>
Cytochrome P450 19A1

>  <Target Organism>
Homo sapiens

>  <Target Description>
Target is a single protein chain

>  <Sequence Accession>
P11511

>  <Reference>
J Med Chem 33 (11), 2933-2942 (1990)

>  <Pubmed ID>
2231592

>  <DOI>
10.1021/jm00173a001

$$$$
255904
Actelion Java MolfileCreator 1.0

 36 40  0  0  0  0  0  0  0  0999 V2000
    0.0000   -0.0000   -0.0000 Cl  0  0  0  0  0  0  0  0  0  0  0  0
    0.6031    1.3836   -0.0000 C   0  0  0  0  0  0  0  0  0  0  0  0
    2.0812    1.5491   -0.0000 C   0  0  0  0  0  0  0  0  0  0  0  0
   -0.2956    2.6134   -0.0000 C   0  0  0  0  0  0  0  0  0  0  0  0
    2.6843    2.9327   -0.0000 C   0  0  0  0  0  0  0  0  0  0  0  0
    2.9563    0.3429   -0.0000 C   0  0  0  0  0  0  0  0  0  0  0  0
    0.3075    3.9969   -0.0000 C   0  0  0  0  0  0  0  0  0  0  0  0
    1.7856    4.1625   -0.0000 C   0  0  0  0  0  0  0  0  0  0  0  0
    4.0561    1.3599   -0.0000 O   0  0  0  0  0  0  0  0  0  0  0  0
    3.5594   -1.0170   -0.0000 O   0  0  0  0  0  0  0  0  0  0  0  0
    1.6437   -0.4021   -0.0000 C   0  0  0  0  0  0  0  0  0  0  0  0
   -0.5913    5.2268   -0.0000 Cl  0  0  0  0  0  0  0  0  0  0  0  0
    5.3450    0.6149   -0.0000 C   0  0  0  0  0  0  0  0  0  0  0  0
    5.0376   -0.8514   -0.0000 C   0  0  0  0  0  0  0  0  0  0  0  0
    1.6319   -1.8920   -0.0000 N   0  0  0  0  0  0  0  0  0  0  0  0
    6.7049    1.2417   -0.0000 C   0  0  0  0  0  0  0  0  0  0  0  0
    0.4021   -2.7671   -0.0000 C   0  0  0  0  0  0  0  0  0  0  0  0
    2.8381   -2.7671   -0.0000 C   0  0  0  0  0  0  0  0  0  0  0  0
    6.8468    2.7435   -0.0000 O   0  0  0  0  0  0  0  0  0  0  0  0
    0.8514   -4.1861   -0.0000 N   0  0  0  0  0  0  0  0  0  0  0  0
    2.3651   -4.1861   -0.0000 C   0  0  0  0  0  0  0  0  0  0  0  0
    8.2067    3.3702   -0.0000 C   0  0  0  0  0  0  0  0  0  0  0  0
    8.3486    4.8720   -0.0000 C   0  0  0  0  0  0  0  0  0  0  0  0
    9.4129    2.4951   -0.0000 C   0  0  0  0  0  0  0  0  0  0  0  0
    9.7085    5.4987   -0.0000 C   0  0  0  0  0  0  0  0  0  0  0  0
   10.7728    3.1219   -0.0000 C   0  0  0  0  0  0  0  0  0  0  0  0
   10.9147    4.6237   -0.0000 C   0  0  0  0  0  0  0  0  0  0  0  0
   12.2746    5.2504   -0.0000 N   0  0  0  0  0  0  0  0  0  0  0  0
   13.4808    4.3753   -0.0000 C   0  0  0  0  0  0  0  0  0  0  0  0
   12.4165    6.7522   -0.0000 C   0  0  0  0  0  0  0  0  0  0  0  0
   14.8407    5.0021   -0.0000 C   0  0  0  0  0  0  0  0  0  0  0  0
   13.7764    7.3790   -0.0000 C   0  0  0  0  0  0  0  0  0  0  0  0
   14.9826    6.5039   -0.0000 N   0  0  0  0  0  0  0  0  0  0  0  0
   16.3425    7.1306   -0.0000 C   0  0  0  0  0  0  0  0  0  0  0  0
   16.4844    8.6324   -0.0000 O   0  0  0  0  0  0  0  0  0  0  0  0
   17.5487    6.2556   -0.0000 C   0  0  0  0  0  0  0  0  0  0  0  0
  1  2  1  0  0  0  0
  2  3  2  0  0  0  0
  2  4  1  0  0  0  0
  3  5  1  0  0  0  0
  3  6  1  0  0  0  0
  4  7  2  0  0  0  0
  5  8  2  0  0  0  0
  6  9  1  0  0  0  0
  6 10  1  0  0  0  0
  6 11  1  0  0  0  0
  7 12  1  0  0  0  0
  9 13  1  0  0  0  0
 10 14  1  0  0  0  0
 11 15  1  0  0  0  0
 13 16  1  0  0  0  0
 15 17  1  0  0  0  0
 15 18  1  0  0  0  0
 16 19  1  0  0  0  0
 17 20  2  0  0  0  0
 18 21  2  0  0  0  0
 19 22  1  0  0  0  0
 22 23  2  0  0  0  0
 22 24  1  0  0  0  0
 23 25  1  0  0  0  0
 24 26  2  0  0  0  0
 25 27  2  0  0  0  0
 27 28  1  0  0  0  0
 28 29  1  0  0  0  0
 28 30  1  0  0  0  0
 29 31  1  0  0  0  0
 30 32  1  0  0  0  0
 31 33  1  0  0  0  0
 33 34  1  0  0  0  0
 34 35  2  0  0  0  0
 34 36  1  0  0  0  0
  7  8  1  0  0  0  0
 13 14  1  0  0  0  0
 20 21  1  0  0  0  0
 26 27  1  0  0  0  0
 32 33  1  0  0  0  0
M  END
>  <MolRegNo>
255904

>  <m>
=

>  <Value>
65000

>  <Unit>
nM

>  <Type>
Ki

>  <pValue>
4.19

>  <Ligand Efficiency>
0.16

>  <Binding Efficiency>
7.88

>  <Surface Efficiency>
6.06

>  <Assay Index>
50795

>  <Assay Category>


>  <Assay Organism>


>  <Target ID>
65

>  <Target Name>
Cytochrome P450 19A1

>  <Target Organism>
Homo sapiens

>  <Target Description>
Target is a single protein chain

>  <Sequence Accession>
P11511

>  <Reference>
J Med Chem 33 (11), 2933-2942 (1990)

>  <Pubmed ID>
2231592

>  <DOI>
10.1021/jm00173a001

$$$$
163058
Actelion Java MolfileCreator 1.0

 23 26  0  0  1  0  0  0  0  0999 V2000
    0.0000   -0.0000   -0.0000 O   0  0  0  0  0  0  0  0  0  0  0  0
    1.2868    0.7685   -0.0000 C   0  0  0  0  0  0  0  0  0  0  0  0
    2.5735    0.0357   -0.0000 C   0  0  0  0  0  0  0  0  0  0  0  0
    1.2689    2.2876   -0.0000 C   0  0  0  0  0  0  0  0  0  0  0  0
    3.8424    0.8042   -0.0000 C   0  0  0  0  0  0  0  0  0  0  0  0
    2.5557    3.0561   -0.0000 C   0  0  0  0  0  0  0  0  0  0  0  0
    3.8245    2.3233   -0.0000 C   0  0  0  0  0  0  0  0  0  0  0  0
    5.1292    0.0715   -0.0000 C   0  0  0  0  0  0  0  0  0  0  0  0
    5.1113    3.0918   -0.0000 C   0  0  0  0  0  0  0  0  0  0  0  0
    3.8067    3.8424   -0.0000 C   0  0  0  0  0  0  0  0  0  0  0  0
    6.4159    0.8400   -0.0000 C   0  0  0  0  0  0  0  0  0  0  0  0
    6.3802    2.3412   -0.0000 C   0  0  0  0  0  0  0  0  0  0  0  0
    5.0756    4.6288   -0.0000 C   0  0  0  0  0  0  0  0  0  0  0  0
    2.4842    4.6109   -0.0000 C   0  0  0  0  0  0  0  0  0  0  0  0
    7.6848    3.2705   -0.0000 C   0  0  0  0  0  0  0  0  0  0  0  0
    6.3981    5.3615   -0.0000 C   0  0  0  0  0  0  0  0  0  0  0  0
    2.4484    6.1300   -0.0000 C   0  0  0  0  0  0  0  0  0  0  0  0
    7.6670    4.5930   -0.0000 C   0  0  0  0  0  0  0  0  0  0  0  0
    9.9367    3.2884   -0.0000 C   0  0  0  0  0  0  0  0  0  0  0  0
    8.7929    5.2722   -0.0000 C   0  0  0  0  0  0  0  0  0  0  0  0
    7.6491    6.1121   -0.0000 C   0  0  0  0  0  0  0  0  0  0  0  0
    9.9188    4.6109   -0.0000 C   0  0  0  0  0  0  0  0  0  0  0  0
    8.7750    6.6125   -0.0000 O   0  0  0  0  0  0  0  0  0  0  0  0
  1  2  2  0  0  0  0
  2  3  1  0  0  0  0
  2  4  1  0  0  0  0
  3  5  2  0  0  0  0
  4  6  1  0  0  0  0
  5  7  1  0  0  0  0
  5  8  1  0  0  0  0
  7  9  1  0  0  0  0
  7 10  1  1  0  0  0
  8 11  1  0  0  0  0
  9 12  1  0  0  0  0
  9 13  1  0  0  0  0
 10 14  1  0  0  0  0
 12 15  1  0  0  0  0
 13 16  1  0  0  0  0
 14 17  1  0  0  0  0
 15 18  1  0  0  0  0
 15 19  1  0  0  0  0
 18 20  1  0  0  0  0
 18 21  1  1  0  0  0
 19 22  1  0  0  0  0
 20 23  2  0  0  0  0
  6  7  1  0  0  0  0
 11 12  1  0  0  0  0
 16 18  1  0  0  0  0
 20 22  1  0  0  0  0
M  END
>  <MolRegNo>
163058

>  <m>
=

>  <Value>
3000

>  <Unit>
nM

>  <Type>
Ki

>  <pValue>
5.52

>  <Ligand Efficiency>
0.33

>  <Binding Efficiency>
17.56

>  <Surface Efficiency>
16.18

>  <Assay Index>
50795

>  <Assay Category>


>  <Assay Organism>


>  <Target ID>
65

>  <Target Name>
Cytochrome P450 19A1

>  <Target Organism>
Homo sapiens

>  <Target Description>
Target is a single protein chain

>  <Sequence Accession>
P11511

>  <Reference>
J Med Chem 33 (11), 2933-2942 (1990)

>  <Pubmed ID>
2231592

>  <DOI>
10.1021/jm00173a001

$$$$
163388
Actelion Java MolfileCreator 1.0

 23 26  0  0  1  0  0  0  0  0999 V2000
    0.0000   -0.0000   -0.0000 O   0  0  0  0  0  0  0  0  0  0  0  0
    1.2868    0.7685   -0.0000 C   0  0  0  0  0  0  0  0  0  0  0  0
    2.5735    0.0357   -0.0000 C   0  0  0  0  0  0  0  0  0  0  0  0
    1.2689    2.2876   -0.0000 C   0  0  0  0  0  0  0  0  0  0  0  0
    3.8424    0.8042   -0.0000 C   0  0  0  0  0  0  0  0  0  0  0  0
    2.5557    3.0561   -0.0000 C   0  0  0  0  0  0  0  0  0  0  0  0
    3.8245    2.3233   -0.0000 C   0  0  0  0  0  0  0  0  0  0  0  0
    5.1292    0.0715   -0.0000 C   0  0  0  0  0  0  0  0  0  0  0  0
    3.8067    3.8424   -0.0000 C   0  0  0  0  0  0  0  0  0  0  0  0
    5.1113    3.0918   -0.0000 C   0  0  0  0  0  0  0  0  0  0  0  0
    6.4159    0.8400   -0.0000 C   0  0  0  0  0  0  0  0  0  0  0  0
    2.4842    4.6109   -0.0000 C   0  0  0  0  0  0  0  0  0  0  0  0
    6.3802    2.3412   -0.0000 C   0  0  0  0  0  0  0  0  0  0  0  0
    5.0756    4.6288   -0.0000 C   0  0  0  0  0  0  0  0  0  0  0  0
    2.4484    6.1300   -0.0000 C   0  0  0  0  0  0  0  0  0  0  0  0
    7.6848    3.2705   -0.0000 C   0  0  0  0  0  0  0  0  0  0  0  0
    6.3981    5.3615   -0.0000 C   0  0  0  0  0  0  0  0  0  0  0  0
    7.6670    4.5930   -0.0000 C   0  0  0  0  0  0  0  0  0  0  0  0
    9.9367    3.2884   -0.0000 C   0  0  0  0  0  0  0  0  0  0  0  0
    8.7929    5.2722   -0.0000 C   0  0  0  0  0  0  0  0  0  0  0  0
    7.6491    6.1121   -0.0000 C   0  0  0  0  0  0  0  0  0  0  0  0
    9.9188    4.6109   -0.0000 C   0  0  0  0  0  0  0  0  0  0  0  0
    8.7750    6.6125   -0.0000 O   0  0  0  0  0  0  0  0  0  0  0  0
  1  2  2  0  0  0  0
  2  3  1  0  0  0  0
  2  4  1  0  0  0  0
  3  5  2  0  0  0  0
  4  6  1  0  0  0  0
  5  7  1  0  0  0  0
  5  8  1  0  0  0  0
  7  9  1  1  0  0  0
  7 10  1  0  0  0  0
  8 11  1  0  0  0  0
  9 12  2  0  0  0  0
 10 13  1  0  0  0  0
 10 14  1  0  0  0  0
 12 15  1  0  0  0  0
 13 16  1  0  0  0  0
 14 17  1  0  0  0  0
 16 18  1  0  0  0  0
 16 19  1  0  0  0  0
 18 20  1  0  0  0  0
 18 21  1  1  0  0  0
 19 22  1  0  0  0  0
 20 23  2  0  0  0  0
  6  7  1  0  0  0  0
 11 13  1  0  0  0  0
 17 18  1  0  0  0  0
 20 22  1  0  0  0  0
M  END
>  <MolRegNo>
163388

>  <m>
=

>  <Value>
56

>  <Unit>
nM

>  <Type>
Ki

>  <pValue>
7.25

>  <Ligand Efficiency>
0.43

>  <Binding Efficiency>
23.21

>  <Surface Efficiency>
21.24

>  <Assay Index>
50795

>  <Assay Category>


>  <Assay Organism>


>  <Target ID>
65

>  <Target Name>
Cytochrome P450 19A1

>  <Target Organism>
Homo sapiens

>  <Target Description>
Target is a single protein chain

>  <Sequence Accession>
P11511

>  <Reference>
J Med Chem 33 (11), 2933-2942 (1990)

>  <Pubmed ID>
2231592

>  <DOI>
10.1021/jm00173a001

$$$$
163057
Actelion Java MolfileCreator 1.0

 29 33  0  0  1  0  0  0  0  0999 V2000
    0.0000   -0.0000   -0.0000 I   0  0  0  0  0  0  0  0  0  0  0  0
   -0.0177    1.5072   -0.0000 C   0  0  0  0  0  0  0  0  0  0  0  0
    1.2590    2.2697   -0.0000 C   0  0  0  0  0  0  0  0  0  0  0  0
   -1.3299    2.2697   -0.0000 C   0  0  0  0  0  0  0  0  0  0  0  0
    1.2413    3.7769   -0.0000 C   0  0  0  0  0  0  0  0  0  0  0  0
   -1.3476    3.7769   -0.0000 C   0  0  0  0  0  0  0  0  0  0  0  0
   -0.0532    4.5217   -0.0000 C   0  0  0  0  0  0  0  0  0  0  0  0
   -0.0709    6.0289   -0.0000 S   0  0  0  0  0  0  0  0  0  0  0  0
   -1.3831    6.8091   -0.0000 C   0  0  0  0  0  0  0  0  0  0  0  0
   -1.4008    8.2986   -0.0000 C   0  0  0  0  0  0  0  0  0  0  0  0
   -2.6953    6.0821   -0.0000 C   0  0  0  0  0  0  0  0  0  0  0  0
   -2.6953    9.0789   -0.0000 C   0  0  0  0  0  0  0  0  0  0  0  0
   -0.1064    9.2207   -0.0000 C   0  0  0  0  0  0  0  0  0  0  0  0
   -4.0075    6.8446   -0.0000 C   0  0  0  0  0  0  0  0  0  0  0  0
   -4.0075    8.3518   -0.0000 C   0  0  0  0  0  0  0  0  0  0  0  0
   -2.6953   10.5861   -0.0000 C   0  0  0  0  0  0  0  0  0  0  0  0
   -0.1241   10.5329   -0.0000 C   0  0  0  0  0  0  0  0  0  0  0  0
    2.1279    9.2384   -0.0000 C   0  0  0  0  0  0  0  0  0  0  0  0
   -5.3019    6.1176   -0.0000 C   0  0  0  0  0  0  0  0  0  0  0  0
   -5.3196    9.1143   -0.0000 C   0  0  0  0  0  0  0  0  0  0  0  0
   -4.0252    9.8591   -0.0000 C   0  0  0  0  0  0  0  0  0  0  0  0
   -1.4186   11.3308   -0.0000 C   0  0  0  0  0  0  0  0  0  0  0  0
    0.9930   11.2067   -0.0000 C   0  0  0  0  0  0  0  0  0  0  0  0
   -0.1419   12.0401   -0.0000 C   0  0  0  0  0  0  0  0  0  0  0  0
    2.1101   10.5506   -0.0000 C   0  0  0  0  0  0  0  0  0  0  0  0
   -6.6141    6.8801   -0.0000 C   0  0  0  0  0  0  0  0  0  0  0  0
   -6.6318    8.3873   -0.0000 C   0  0  0  0  0  0  0  0  0  0  0  0
    0.9753   12.5366   -0.0000 O   0  0  0  0  0  0  0  0  0  0  0  0
   -7.9263    6.1531   -0.0000 O   0  0  0  0  0  0  0  0  0  0  0  0
  1  2  1  0  0  0  0
  2  3  2  0  0  0  0
  2  4  1  0  0  0  0
  3  5  1  0  0  0  0
  4  6  2  0  0  0  0
  5  7  2  0  0  0  0
  7  8  1  0  0  0  0
  9  8  1  6  0  0  0
  9 10  1  0  0  0  0
  9 11  1  0  0  0  0
 10 12  1  0  0  0  0
 10 13  1  0  0  0  0
 11 14  1  0  0  0  0
 12 15  1  0  0  0  0
 12 16  1  0  0  0  0
 13 17  1  0  0  0  0
 13 18  1  0  0  0  0
 14 19  2  0  0  0  0
 15 20  1  0  0  0  0
 15 21  1  1  0  0  0
 16 22  1  0  0  0  0
 17 23  1  0  0  0  0
 17 24  1  1  0  0  0
 18 25  1  0  0  0  0
 19 26  1  0  0  0  0
 20 27  1  0  0  0  0
 23 28  2  0  0  0  0
 26 29  2  0  0  0  0
  6  7  1  0  0  0  0
 14 15  1  0  0  0  0
 17 22  1  0  0  0  0
 23 25  1  0  0  0  0
 26 27  1  0  0  0  0
M  END
>  <MolRegNo>
163057

>  <m>
=

>  <Value>
12

>  <Unit>
nM

>  <Type>
Ki

>  <pValue>
7.92

>  <Ligand Efficiency>
0.37

>  <Binding Efficiency>
15.22

>  <Surface Efficiency>
23.2

>  <Assay Index>
50795

>  <Assay Category>


>  <Assay Organism>


>  <Target ID>
65

>  <Target Name>
Cytochrome P450 19A1

>  <Target Organism>
Homo sapiens

>  <Target Description>
Target is a single protein chain

>  <Sequence Accession>
P11511

>  <Reference>
J Med Chem 33 (11), 2933-2942 (1990)

>  <Pubmed ID>
2231592

>  <DOI>
10.1021/jm00173a001

$$$$
162817
Actelion Java MolfileCreator 1.0

 26 29  0  0  1  0  0  0  0  0999 V2000
    0.0000   -0.0000   -0.0000 Br  0  0  0  0  0  0  0  0  0  0  0  0
    1.0652    1.1014   -0.0000 C   0  0  0  0  0  0  0  0  0  0  0  0
   -0.2708    1.8777   -0.0000 C   0  0  0  0  0  0  0  0  0  0  0  0
    2.3833    1.8777   -0.0000 C   0  0  0  0  0  0  0  0  0  0  0  0
   -1.5888    1.1375   -0.0000 C   0  0  0  0  0  0  0  0  0  0  0  0
   -0.2708    3.4124   -0.0000 C   0  0  0  0  0  0  0  0  0  0  0  0
    2.3472    3.4124   -0.0000 C   0  0  0  0  0  0  0  0  0  0  0  0
   -2.9249    1.9138   -0.0000 C   0  0  0  0  0  0  0  0  0  0  0  0
    1.0291    4.1888   -0.0000 C   0  0  0  0  0  0  0  0  0  0  0  0
   -1.6069    4.2068   -0.0000 C   0  0  0  0  0  0  0  0  0  0  0  0
   -0.3069    4.9471   -0.0000 C   0  0  0  0  0  0  0  0  0  0  0  0
    3.6832    4.3513   -0.0000 C   0  0  0  0  0  0  0  0  0  0  0  0
   -4.2610    1.1736   -0.0000 O   0  0  0  0  0  0  0  0  0  0  0  0
   -2.9430    3.4485   -0.0000 C   0  0  0  0  0  0  0  0  0  0  0  0
    1.0111    5.7234   -0.0000 C   0  0  0  0  0  0  0  0  0  0  0  0
    3.6652    5.7054   -0.0000 C   0  0  0  0  0  0  0  0  0  0  0  0
    5.9582    4.3693   -0.0000 C   0  0  0  0  0  0  0  0  0  0  0  0
    2.3291    6.4818   -0.0000 C   0  0  0  0  0  0  0  0  0  0  0  0
    4.8026    6.3915   -0.0000 C   0  0  0  0  0  0  0  0  0  0  0  0
    3.6471    7.2401   -0.0000 C   0  0  0  0  0  0  0  0  0  0  0  0
    5.9401    5.7234   -0.0000 C   0  0  0  0  0  0  0  0  0  0  0  0
    4.7846    7.7456   -0.0000 O   0  0  0  0  0  0  0  0  0  0  0  0
    5.9040    8.4136   -0.0000 C   0  0  0  0  0  0  0  0  0  0  0  0
    5.8859    9.7678   -0.0000 O   0  0  0  0  0  0  0  0  0  0  0  0
    7.0234    7.7637   -0.0000 C   0  0  0  0  0  0  0  0  0  0  0  0
    8.1609    8.4498   -0.0000 Br  0  0  0  0  0  0  0  0  0  0  0  0
  2  1  1  1  0  0  0
  2  3  1  0  0  0  0
  2  4  1  0  0  0  0
  3  5  2  0  0  0  0
  3  6  1  0  0  0  0
  4  7  1  0  0  0  0
  5  8  1  0  0  0  0
  6  9  1  0  0  0  0
  6 10  1  0  0  0  0
  6 11  1  1  0  0  0
  7 12  1  0  0  0  0
  8 13  2  0  0  0  0
  8 14  1  0  0  0  0
  9 15  1  0  0  0  0
 12 16  1  0  0  0  0
 12 17  1  0  0  0  0
 15 18  1  0  0  0  0
 16 19  1  0  0  0  0
 16 20  1  1  0  0  0
 17 21  1  0  0  0  0
 19 22  1  1  0  0  0
 22 23  1  0  0  0  0
 23 24  2  0  0  0  0
 23 25  1  0  0  0  0
 25 26  1  0  0  0  0
  7  9  1  0  0  0  0
 10 14  1  0  0  0  0
 16 18  1  0  0  0  0
 19 21  1  0  0  0  0
M  END
>  <MolRegNo>
162817

>  <m>
=

>  <Value>
25000

>  <Unit>
nM

>  <Type>
Ki

>  <pValue>
4.6

>  <Ligand Efficiency>
0.24

>  <Binding Efficiency>
9.43

>  <Surface Efficiency>
10.61

>  <Assay Index>
50795

>  <Assay Category>


>  <Assay Organism>


>  <Target ID>
65

>  <Target Name>
Cytochrome P450 19A1

>  <Target Organism>
Homo sapiens

>  <Target Description>
Target is a single protein chain

>  <Sequence Accession>
P11511

>  <Reference>
J Med Chem 33 (11), 2933-2942 (1990)

>  <Pubmed ID>
2231592

>  <DOI>
10.1021/jm00173a001

$$$$
163569
Actelion Java MolfileCreator 1.0

 23 26  0  0  1  0  0  0  0  0999 V2000
    0.0000   -0.0000   -0.0000 O   0  0  0  0  0  0  0  0  0  0  0  0
    1.2884    0.7694   -0.0000 C   0  0  0  0  0  0  0  0  0  0  0  0
    2.5767    0.0358   -0.0000 C   0  0  0  0  0  0  0  0  0  0  0  0
    1.2705    2.2904   -0.0000 C   0  0  0  0  0  0  0  0  0  0  0  0
    3.8472    0.8052   -0.0000 C   0  0  0  0  0  0  0  0  0  0  0  0
    2.5588    3.0598   -0.0000 C   0  0  0  0  0  0  0  0  0  0  0  0
   -0.0537    3.0598   -0.0000 C   0  0  0  0  0  0  0  0  0  0  0  0
   -0.0537    1.5568   -0.0000 C   0  0  0  0  0  0  0  0  0  0  0  0
    3.8293    2.3262   -0.0000 C   0  0  0  0  0  0  0  0  0  0  0  0
    5.1355    0.0716   -0.0000 C   0  0  0  0  0  0  0  0  0  0  0  0
    5.1176    3.0956   -0.0000 C   0  0  0  0  0  0  0  0  0  0  0  0
    3.8114    3.8472   -0.0000 C   0  0  0  0  0  0  0  0  0  0  0  0
    6.4239    0.8410   -0.0000 C   0  0  0  0  0  0  0  0  0  0  0  0
    6.3881    2.3441   -0.0000 C   0  0  0  0  0  0  0  0  0  0  0  0
    5.1176    4.6166   -0.0000 C   0  0  0  0  0  0  0  0  0  0  0  0
    7.6943    3.2746   -0.0000 C   0  0  0  0  0  0  0  0  0  0  0  0
    6.4060    5.3681   -0.0000 C   0  0  0  0  0  0  0  0  0  0  0  0
    7.6764    4.5987   -0.0000 C   0  0  0  0  0  0  0  0  0  0  0  0
    9.9489    3.2925   -0.0000 C   0  0  0  0  0  0  0  0  0  0  0  0
    8.8037    5.2787   -0.0000 C   0  0  0  0  0  0  0  0  0  0  0  0
    7.6585    6.1197   -0.0000 C   0  0  0  0  0  0  0  0  0  0  0  0
    9.9310    4.6166   -0.0000 C   0  0  0  0  0  0  0  0  0  0  0  0
    8.7858    6.6207   -0.0000 O   0  0  0  0  0  0  0  0  0  0  0  0
  1  2  2  0  0  0  0
  2  3  1  0  0  0  0
  2  4  1  0  0  0  0
  3  5  2  0  0  0  0
  4  6  1  0  0  0  0
  4  7  1  0  0  0  0
  4  8  1  0  0  0  0
  5  9  1  0  0  0  0
  5 10  1  0  0  0  0
  9 11  1  0  0  0  0
  9 12  1  1  0  0  0
 10 13  1  0  0  0  0
 11 14  1  0  0  0  0
 11 15  1  0  0  0  0
 14 16  1  0  0  0  0
 15 17  1  0  0  0  0
 16 18  1  0  0  0  0
 16 19  1  0  0  0  0
 18 20  1  0  0  0  0
 18 21  1  1  0  0  0
 19 22  1  0  0  0  0
 20 23  2  0  0  0  0
  6  9  1  0  0  0  0
 13 14  1  0  0  0  0
 17 18  1  0  0  0  0
 20 22  1  0  0  0  0
M  END
>  <MolRegNo>
163569

>  <m>
=

>  <Value>
2.3

>  <Unit>
nM

>  <Type>
Ki

>  <pValue>
8.64

>  <Ligand Efficiency>
0.51

>  <Binding Efficiency>
27.47

>  <Surface Efficiency>
25.3

>  <Assay Index>
50795

>  <Assay Category>


>  <Assay Organism>


>  <Target ID>
65

>  <Target Name>
Cytochrome P450 19A1

>  <Target Organism>
Homo sapiens

>  <Target Description>
Target is a single protein chain

>  <Sequence Accession>
P11511

>  <Reference>
J Med Chem 33 (11), 2933-2942 (1990)

>  <Pubmed ID>
2231592

>  <DOI>
10.1021/jm00173a001

$$$$
1595382
Actelion Java MolfileCreator 1.0

 21 24  0  0  1  0  0  0  0  0999 V2000
    0.0000   -0.0000   -0.0000 O   0  0  0  0  0  0  0  0  0  0  0  0
    1.2856    0.7678   -0.0000 C   0  0  0  0  0  0  0  0  0  0  0  0
    2.5713    0.0357   -0.0000 C   0  0  0  0  0  0  0  0  0  0  0  0
    1.2678    2.2856   -0.0000 C   0  0  0  0  0  0  0  0  0  0  0  0
    3.8390    0.8035   -0.0000 C   0  0  0  0  0  0  0  0  0  0  0  0
    2.5534    3.0712   -0.0000 C   0  0  0  0  0  0  0  0  0  0  0  0
    3.8390    2.3213   -0.0000 C   0  0  0  0  0  0  0  0  0  0  0  0
    5.1247    0.0714   -0.0000 C   0  0  0  0  0  0  0  0  0  0  0  0
    5.1247    3.0891   -0.0000 C   0  0  0  0  0  0  0  0  0  0  0  0
    3.8033    3.8390   -0.0000 C   0  0  0  0  0  0  0  0  0  0  0  0
    6.4281    0.8392   -0.0000 C   0  0  0  0  0  0  0  0  0  0  0  0
    6.3924    2.3391   -0.0000 C   0  0  0  0  0  0  0  0  0  0  0  0
    5.1068    4.6068   -0.0000 C   0  0  0  0  0  0  0  0  0  0  0  0
    7.7138    3.2676   -0.0000 C   0  0  0  0  0  0  0  0  0  0  0  0
    6.4103    5.3568   -0.0000 C   0  0  0  0  0  0  0  0  0  0  0  0
    7.6959    4.6068   -0.0000 C   0  0  0  0  0  0  0  0  0  0  0  0
    9.9636    3.2855   -0.0000 C   0  0  0  0  0  0  0  0  0  0  0  0
    8.8208    5.2854   -0.0000 C   0  0  0  0  0  0  0  0  0  0  0  0
    7.6781    6.1246   -0.0000 C   0  0  0  0  0  0  0  0  0  0  0  0
    9.9458    4.6247   -0.0000 O   0  0  0  0  0  0  0  0  0  0  0  0
    8.8030    6.6246   -0.0000 O   0  0  0  0  0  0  0  0  0  0  0  0
  1  2  2  0  0  0  0
  2  3  1  0  0  0  0
  2  4  1  0  0  0  0
  3  5  2  0  0  0  0
  4  6  2  0  0  0  0
  5  7  1  0  0  0  0
  5  8  1  0  0  0  0
  7  9  1  0  0  0  0
  7 10  1  1  0  0  0
  8 11  1  0  0  0  0
  9 12  1  0  0  0  0
  9 13  1  1  0  0  0
 12 14  1  0  0  0  0
 13 15  1  0  0  0  0
 14 16  1  0  0  0  0
 14 17  1  1  0  0  0
 16 18  1  0  0  0  0
 16 19  1  1  0  0  0
 17 20  1  0  0  0  0
 18 21  2  0  0  0  0
  6  7  1  0  0  0  0
 12 11  1  6  0  0  0
 15 16  1  0  0  0  0
 18 20  1  0  0  0  0
M  END
>  <MolRegNo>
1595382

>  <m>
=

>  <Value>
390

>  <Unit>
nM

>  <Type>
Ki

>  <pValue>
6.41

>  <Ligand Efficiency>
0.42

>  <Binding Efficiency>
22.38

>  <Surface Efficiency>
14.78

>  <Assay Index>
50795

>  <Assay Category>


>  <Assay Organism>


>  <Target ID>
65

>  <Target Name>
Cytochrome P450 19A1

>  <Target Organism>
Homo sapiens

>  <Target Description>
Target is a single protein chain

>  <Sequence Accession>
P11511

>  <Reference>
J Med Chem 33 (11), 2933-2942 (1990)

>  <Pubmed ID>
2231592

>  <DOI>
10.1021/jm00173a001

$$$$
163336
Actelion Java MolfileCreator 1.0

 22 25  0  0  0  0  0  0  0  0999 V2000
    0.0000   -0.0000   -0.0000 O   0  0  0  0  0  0  0  0  0  0  0  0
   -0.0119    1.5092   -0.0000 C   0  0  0  0  0  0  0  0  0  0  0  0
    1.2715    2.2697   -0.0000 C   0  0  0  0  0  0  0  0  0  0  0  0
   -1.3190    2.2578   -0.0000 C   0  0  0  0  0  0  0  0  0  0  0  0
    1.2596    3.7551   -0.0000 C   0  0  0  0  0  0  0  0  0  0  0  0
    2.5430    1.5329   -0.0000 C   0  0  0  0  0  0  0  0  0  0  0  0
   -1.3309    3.7670   -0.0000 C   0  0  0  0  0  0  0  0  0  0  0  0
   -0.0475    4.5275   -0.0000 O   0  0  0  0  0  0  0  0  0  0  0  0
    2.5430    4.5156   -0.0000 C   0  0  0  0  0  0  0  0  0  0  0  0
    3.8264    2.2816   -0.0000 C   0  0  0  0  0  0  0  0  0  0  0  0
   -2.6381    4.5275   -0.0000 C   0  0  0  0  0  0  0  0  0  0  0  0
    3.8264    3.7670   -0.0000 C   0  0  0  0  0  0  0  0  0  0  0  0
    2.5311    6.0248   -0.0000 C   0  0  0  0  0  0  0  0  0  0  0  0
   -3.9453    3.7908   -0.0000 C   0  0  0  0  0  0  0  0  0  0  0  0
   -2.6500    6.0486   -0.0000 C   0  0  0  0  0  0  0  0  0  0  0  0
    5.1098    4.5275   -0.0000 C   0  0  0  0  0  0  0  0  0  0  0  0
    3.8264    6.7735   -0.0000 C   0  0  0  0  0  0  0  0  0  0  0  0
   -5.2524    4.5513   -0.0000 C   0  0  0  0  0  0  0  0  0  0  0  0
   -3.9571    6.8091   -0.0000 C   0  0  0  0  0  0  0  0  0  0  0  0
    5.1098    6.0367   -0.0000 C   0  0  0  0  0  0  0  0  0  0  0  0
    3.8264    8.2827   -0.0000 O   0  0  0  0  0  0  0  0  0  0  0  0
   -5.2643    6.0605   -0.0000 C   0  0  0  0  0  0  0  0  0  0  0  0
  1  2  2  0  0  0  0
  2  3  1  0  0  0  0
  2  4  1  0  0  0  0
  3  5  2  0  0  0  0
  3  6  1  0  0  0  0
  4  7  2  0  0  0  0
  5  8  1  0  0  0  0
  5  9  1  0  0  0  0
  6 10  2  0  0  0  0
  7 11  1  0  0  0  0
  9 12  1  0  0  0  0
  9 13  2  0  0  0  0
 11 14  2  0  0  0  0
 11 15  1  0  0  0  0
 12 16  2  0  0  0  0
 13 17  1  0  0  0  0
 14 18  1  0  0  0  0
 15 19  2  0  0  0  0
 16 20  1  0  0  0  0
 17 21  1  0  0  0  0
 18 22  2  0  0  0  0
  7  8  1  0  0  0  0
 10 12  1  0  0  0  0
 17 20  2  0  0  0  0
 19 22  1  0  0  0  0
M  END
>  <MolRegNo>
163336

>  <m>
=

>  <Value>
5

>  <Unit>
nM

>  <Type>
Ki

>  <pValue>
8.3

>  <Ligand Efficiency>
0.52

>  <Binding Efficiency>
28.79

>  <Surface Efficiency>
16.46

>  <Assay Index>
50795

>  <Assay Category>


>  <Assay Organism>


>  <Target ID>
65

>  <Target Name>
Cytochrome P450 19A1

>  <Target Organism>
Homo sapiens

>  <Target Description>
Target is a single protein chain

>  <Sequence Accession>
P11511

>  <Reference>
J Med Chem 33 (11), 2933-2942 (1990)

>  <Pubmed ID>
2231592

>  <DOI>
10.1021/jm00173a001

$$$$
163663
Actelion Java MolfileCreator 1.0

 33 37  0  0  1  0  0  0  0  0999 V2000
    0.0000   -0.0000   -0.0000 Br  0  0  0  0  0  0  0  0  0  0  0  0
   -1.3092    0.7607   -0.0000 C   0  0  0  0  0  0  0  0  0  0  0  0
   -1.3269    2.2645   -0.0000 C   0  0  0  0  0  0  0  0  0  0  0  0
   -0.0531    3.0253   -0.0000 O   0  0  0  0  0  0  0  0  0  0  0  0
   -2.6361    3.0253   -0.0000 N   0  0  0  0  0  0  0  0  0  0  0  0
   -2.6538    4.5291   -0.0000 C   0  0  0  0  0  0  0  0  0  0  0  0
   -3.9629    5.3075   -0.0000 C   0  0  0  0  0  0  0  0  0  0  0  0
   -1.3800    5.3075   -0.0000 C   0  0  0  0  0  0  0  0  0  0  0  0
   -3.9806    6.8113   -0.0000 C   0  0  0  0  0  0  0  0  0  0  0  0
   -1.3976    6.8113   -0.0000 C   0  0  0  0  0  0  0  0  0  0  0  0
   -2.7068    7.5544   -0.0000 C   0  0  0  0  0  0  0  0  0  0  0  0
   -2.7068    9.0582   -0.0000 S   0  0  0  0  0  0  0  0  0  0  0  0
   -4.0160    9.8366   -0.0000 C   0  0  0  0  0  0  0  0  0  0  0  0
   -4.0514   11.3404   -0.0000 C   0  0  0  0  0  0  0  0  0  0  0  0
   -5.3429    9.1289   -0.0000 C   0  0  0  0  0  0  0  0  0  0  0  0
   -5.3429   12.1188   -0.0000 C   0  0  0  0  0  0  0  0  0  0  0  0
   -2.7422   12.2603   -0.0000 C   0  0  0  0  0  0  0  0  0  0  0  0
   -6.6521    9.8897   -0.0000 C   0  0  0  0  0  0  0  0  0  0  0  0
   -6.6521   11.3935   -0.0000 C   0  0  0  0  0  0  0  0  0  0  0  0
   -5.3606   13.6226   -0.0000 C   0  0  0  0  0  0  0  0  0  0  0  0
   -2.7599   13.5872   -0.0000 C   0  0  0  0  0  0  0  0  0  0  0  0
   -0.5131   12.2780   -0.0000 C   0  0  0  0  0  0  0  0  0  0  0  0
   -7.9436    9.1643   -0.0000 C   0  0  0  0  0  0  0  0  0  0  0  0
   -7.9613   12.1542   -0.0000 C   0  0  0  0  0  0  0  0  0  0  0  0
   -6.6875   12.8973   -0.0000 C   0  0  0  0  0  0  0  0  0  0  0  0
   -4.0691   14.3657   -0.0000 C   0  0  0  0  0  0  0  0  0  0  0  0
   -1.6453   14.2595   -0.0000 C   0  0  0  0  0  0  0  0  0  0  0  0
   -2.7776   15.0910   -0.0000 C   0  0  0  0  0  0  0  0  0  0  0  0
   -0.5308   13.6049   -0.0000 C   0  0  0  0  0  0  0  0  0  0  0  0
   -9.2528    9.9250   -0.0000 C   0  0  0  0  0  0  0  0  0  0  0  0
   -9.2705   11.4288   -0.0000 C   0  0  0  0  0  0  0  0  0  0  0  0
   -1.6630   15.5687   -0.0000 O   0  0  0  0  0  0  0  0  0  0  0  0
  -10.5619    9.1997   -0.0000 O   0  0  0  0  0  0  0  0  0  0  0  0
  1  2  1  0  0  0  0
  2  3  1  0  0  0  0
  3  4  2  0  0  0  0
  3  5  1  0  0  0  0
  5  6  1  0  0  0  0
  6  7  2  0  0  0  0
  6  8  1  0  0  0  0
  7  9  1  0  0  0  0
  8 10  2  0  0  0  0
  9 11  2  0  0  0  0
 11 12  1  0  0  0  0
 13 12  1  6  0  0  0
 13 14  1  0  0  0  0
 13 15  1  0  0  0  0
 14 16  1  0  0  0  0
 14 17  1  0  0  0  0
 15 18  1  0  0  0  0
 16 19  1  0  0  0  0
 16 20  1  0  0  0  0
 17 21  1  0  0  0  0
 17 22  1  0  0  0  0
 18 23  2  0  0  0  0
 19 24  1  0  0  0  0
 19 25  1  1  0  0  0
 20 26  1  0  0  0  0
 21 27  1  0  0  0  0
 21 28  1  1  0  0  0
 22 29  1  0  0  0  0
 23 30  1  0  0  0  0
 24 31  1  0  0  0  0
 27 32  2  0  0  0  0
 30 33  2  0  0  0  0
 10 11  1  0  0  0  0
 18 19  1  0  0  0  0
 21 26  1  0  0  0  0
 27 29  1  0  0  0  0
 30 31  1  0  0  0  0
M  END
>  <MolRegNo>
163663

>  <m>
=

>  <Value>
33000

>  <Unit>
nM

>  <Type>
Ki

>  <pValue>
4.48

>  <Ligand Efficiency>
0.19

>  <Binding Efficiency>
8.45

>  <Surface Efficiency>
7.09

>  <Assay Index>
50795

>  <Assay Category>


>  <Assay Organism>


>  <Target ID>
65

>  <Target Name>
Cytochrome P450 19A1

>  <Target Organism>
Homo sapiens

>  <Target Description>
Target is a single protein chain

>  <Sequence Accession>
P11511

>  <Reference>
J Med Chem 33 (11), 2933-2942 (1990)

>  <Pubmed ID>
2231592

>  <DOI>
10.1021/jm00173a001

$$$$
163090
Actelion Java MolfileCreator 1.0

 21 24  0  0  1  0  0  0  0  0999 V2000
    0.0000   -0.0000   -0.0000 O   0  0  0  0  0  0  0  0  0  0  0  0
   -0.0118   -1.3120   -0.0000 C   0  0  0  0  0  0  0  0  0  0  0  0
   -1.1584   -1.9621   -0.0000 C   0  0  0  0  0  0  0  0  0  0  0  0
    1.1111   -1.9621   -0.0000 C   0  0  0  0  0  0  0  0  0  0  0  0
   -1.1702   -3.2623   -0.0000 C   0  0  0  0  0  0  0  0  0  0  0  0
   -2.4704   -1.1702   -0.0000 C   0  0  0  0  0  0  0  0  0  0  0  0
   -1.1702   -0.4492   -0.0000 C   0  0  0  0  0  0  0  0  0  0  0  0
    1.0993   -3.2623   -0.0000 C   0  0  0  0  0  0  0  0  0  0  0  0
   -2.5058   -4.1606   -0.0000 C   0  0  0  0  0  0  0  0  0  0  0  0
   -3.7824   -1.8912   -0.0000 C   0  0  0  0  0  0  0  0  0  0  0  0
   -3.8060   -3.3805   -0.0000 C   0  0  0  0  0  0  0  0  0  0  0  0
   -2.5058   -5.6381   -0.0000 C   0  0  0  0  0  0  0  0  0  0  0  0
   -5.1180   -4.1252   -0.0000 C   0  0  0  0  0  0  0  0  0  0  0  0
   -3.8178   -6.3710   -0.0000 C   0  0  0  0  0  0  0  0  0  0  0  0
   -5.1417   -5.6145   -0.0000 C   0  0  0  0  0  0  0  0  0  0  0  0
   -6.4301   -3.3569   -0.0000 C   0  0  0  0  0  0  0  0  0  0  0  0
   -5.1417   -2.6122   -0.0000 C   0  0  0  0  0  0  0  0  0  0  0  0
   -6.4419   -6.3473   -0.0000 C   0  0  0  0  0  0  0  0  0  0  0  0
   -7.7421   -4.1015   -0.0000 C   0  0  0  0  0  0  0  0  0  0  0  0
   -7.7539   -5.5908   -0.0000 C   0  0  0  0  0  0  0  0  0  0  0  0
   -9.0659   -6.3237   -0.0000 C   0  0  0  0  0  0  0  0  0  0  0  0
  1  2  2  0  0  0  0
  2  3  1  0  0  0  0
  2  4  1  0  0  0  0
  3  5  1  0  0  0  0
  3  6  1  0  0  0  0
  3  7  1  1  0  0  0
  4  8  1  0  0  0  0
  5  9  1  0  0  0  0
  6 10  1  0  0  0  0
  9 11  1  0  0  0  0
  9 12  1  0  0  0  0
 11 13  1  0  0  0  0
 12 14  1  0  0  0  0
 13 15  1  0  0  0  0
 13 16  1  0  0  0  0
 13 17  1  1  0  0  0
 15 18  2  0  0  0  0
 16 19  1  0  0  0  0
 18 20  1  0  0  0  0
 20 21  2  0  0  0  0
  5  8  1  0  0  0  0
 10 11  1  0  0  0  0
 14 15  1  0  0  0  0
 19 20  1  0  0  0  0
M  END
>  <MolRegNo>
163090

>  <m>
=

>  <Value>
4.7

>  <Unit>
nM

>  <Type>
Ki

>  <pValue>
8.33

>  <Ligand Efficiency>
0.54

>  <Binding Efficiency>
29.28

>  <Surface Efficiency>
48.79

>  <Assay Index>
50795

>  <Assay Category>


>  <Assay Organism>


>  <Target ID>
65

>  <Target Name>
Cytochrome P450 19A1

>  <Target Organism>
Homo sapiens

>  <Target Description>
Target is a single protein chain

>  <Sequence Accession>
P11511

>  <Reference>
J Med Chem 33 (11), 2933-2942 (1990)

>  <Pubmed ID>
2231592

>  <DOI>
10.1021/jm00173a001

$$$$
163339
Actelion Java MolfileCreator 1.0

 22 25  0  0  1  0  0  0  0  0999 V2000
    0.0000   -0.0000   -0.0000 O   0  0  0  0  0  0  0  0  0  0  0  0
    1.3315    0.7891   -0.0000 C   0  0  0  0  0  0  0  0  0  0  0  0
    2.6631    0.0370   -0.0000 C   0  0  0  0  0  0  0  0  0  0  0  0
    1.3192    2.3549   -0.0000 C   0  0  0  0  0  0  0  0  0  0  0  0
    3.9823    0.8137   -0.0000 C   0  0  0  0  0  0  0  0  0  0  0  0
    2.6507    3.1562   -0.0000 C   0  0  0  0  0  0  0  0  0  0  0  0
    3.9823    2.3795   -0.0000 C   0  0  0  0  0  0  0  0  0  0  0  0
    5.3138    0.0493   -0.0000 C   0  0  0  0  0  0  0  0  0  0  0  0
    5.3138    3.1686   -0.0000 C   0  0  0  0  0  0  0  0  0  0  0  0
    3.9576    3.9453   -0.0000 C   0  0  0  0  0  0  0  0  0  0  0  0
    6.6454    0.8260   -0.0000 C   0  0  0  0  0  0  0  0  0  0  0  0
    6.6330    2.3918   -0.0000 C   0  0  0  0  0  0  0  0  0  0  0  0
    5.2768    4.7467   -0.0000 C   0  0  0  0  0  0  0  0  0  0  0  0
    7.9892    3.3412   -0.0000 C   0  0  0  0  0  0  0  0  0  0  0  0
    6.6454    5.5111   -0.0000 C   0  0  0  0  0  0  0  0  0  0  0  0
    7.9769    4.6974   -0.0000 C   0  0  0  0  0  0  0  0  0  0  0  0
    9.1482    2.6754   -0.0000 C   0  0  0  0  0  0  0  0  0  0  0  0
    9.1112    5.4125   -0.0000 O   0  0  0  0  0  0  0  0  0  0  0  0
    7.9646    6.2632   -0.0000 C   0  0  0  0  0  0  0  0  0  0  0  0
   10.3071    3.3658   -0.0000 C   0  0  0  0  0  0  0  0  0  0  0  0
   10.2701    4.7467   -0.0000 C   0  0  0  0  0  0  0  0  0  0  0  0
   11.4290    5.4371   -0.0000 O   0  0  0  0  0  0  0  0  0  0  0  0
  1  2  2  0  0  0  0
  2  3  1  0  0  0  0
  2  4  1  0  0  0  0
  3  5  2  0  0  0  0
  4  6  2  0  0  0  0
  5  7  1  0  0  0  0
  5  8  1  0  0  0  0
  7  9  1  0  0  0  0
  7 10  1  1  0  0  0
  8 11  1  0  0  0  0
  9 12  1  0  0  0  0
  9 13  1  0  0  0  0
 12 14  1  0  0  0  0
 13 15  1  0  0  0  0
 14 16  1  0  0  0  0
 14 17  1  0  0  0  0
 16 18  1  0  0  0  0
 16 19  1  1  0  0  0
 17 20  1  0  0  0  0
 18 21  1  0  0  0  0
 21 22  2  0  0  0  0
  6  7  1  0  0  0  0
 11 12  1  0  0  0  0
 15 16  1  0  0  0  0
 20 21  1  0  0  0  0
M  END
>  <MolRegNo>
163339

>  <m>
=

>  <Value>
35000

>  <Unit>
nM

>  <Type>
Ki

>  <pValue>
4.46

>  <Ligand Efficiency>
0.28

>  <Binding Efficiency>
14.83

>  <Surface Efficiency>
10.27

>  <Assay Index>
50795

>  <Assay Category>


>  <Assay Organism>


>  <Target ID>
65

>  <Target Name>
Cytochrome P450 19A1

>  <Target Organism>
Homo sapiens

>  <Target Description>
Target is a single protein chain

>  <Sequence Accession>
P11511

>  <Reference>
J Med Chem 33 (11), 2933-2942 (1990)

>  <Pubmed ID>
2231592

>  <DOI>
10.1021/jm00173a001

$$$$
162818
Actelion Java MolfileCreator 1.0

 20 23  0  0  1  0  0  0  0  0999 V2000
    0.0000   -0.0000   -0.0000 O   0  0  0  0  0  0  0  0  0  0  0  0
    1.2797    0.7642   -0.0000 C   0  0  0  0  0  0  0  0  0  0  0  0
    2.5593    0.0355   -0.0000 C   0  0  0  0  0  0  0  0  0  0  0  0
    1.2619    2.2750   -0.0000 C   0  0  0  0  0  0  0  0  0  0  0  0
    3.8212    0.7998   -0.0000 C   0  0  0  0  0  0  0  0  0  0  0  0
    2.5416    3.0570   -0.0000 C   0  0  0  0  0  0  0  0  0  0  0  0
    3.8212    2.3105   -0.0000 C   0  0  0  0  0  0  0  0  0  0  0  0
    5.1009    0.0711   -0.0000 C   0  0  0  0  0  0  0  0  0  0  0  0
    5.1009    3.0748   -0.0000 C   0  0  0  0  0  0  0  0  0  0  0  0
    3.7857    3.8212   -0.0000 C   0  0  0  0  0  0  0  0  0  0  0  0
    6.3983    0.8353   -0.0000 C   0  0  0  0  0  0  0  0  0  0  0  0
    6.3628    2.3283   -0.0000 C   0  0  0  0  0  0  0  0  0  0  0  0
    5.0831    4.5855   -0.0000 C   0  0  0  0  0  0  0  0  0  0  0  0
    7.6780    3.2525   -0.0000 C   0  0  0  0  0  0  0  0  0  0  0  0
    6.3806    5.3320   -0.0000 C   0  0  0  0  0  0  0  0  0  0  0  0
    7.6602    4.5855   -0.0000 C   0  0  0  0  0  0  0  0  0  0  0  0
    9.9174    3.2703   -0.0000 C   0  0  0  0  0  0  0  0  0  0  0  0
    8.7799    5.2609   -0.0000 C   0  0  0  0  0  0  0  0  0  0  0  0
    7.6425    6.0962   -0.0000 C   0  0  0  0  0  0  0  0  0  0  0  0
    9.8997    4.6033   -0.0000 C   0  0  0  0  0  0  0  0  0  0  0  0
  1  2  2  0  0  0  0
  2  3  1  0  0  0  0
  2  4  1  0  0  0  0
  3  5  2  0  0  0  0
  4  6  2  0  0  0  0
  5  7  1  0  0  0  0
  5  8  1  0  0  0  0
  7  9  1  0  0  0  0
  7 10  1  1  0  0  0
  8 11  1  0  0  0  0
  9 12  1  0  0  0  0
  9 13  1  0  0  0  0
 12 14  1  0  0  0  0
 13 15  1  0  0  0  0
 14 16  1  0  0  0  0
 14 17  1  0  0  0  0
 16 18  1  0  0  0  0
 16 19  1  1  0  0  0
 17 20  1  0  0  0  0
  6  7  1  0  0  0  0
 11 12  1  0  0  0  0
 15 16  1  0  0  0  0
 18 20  1  0  0  0  0
M  END
>  <MolRegNo>
162818

>  <m>
=

>  <Value>
1100

>  <Unit>
nM

>  <Type>
Ki

>  <pValue>
5.96

>  <Ligand Efficiency>
0.41

>  <Binding Efficiency>
22.03

>  <Surface Efficiency>
34.91

>  <Assay Index>
50795

>  <Assay Category>


>  <Assay Organism>


>  <Target ID>
65

>  <Target Name>
Cytochrome P450 19A1

>  <Target Organism>
Homo sapiens

>  <Target Description>
Target is a single protein chain

>  <Sequence Accession>
P11511

>  <Reference>
J Med Chem 33 (11), 2933-2942 (1990)

>  <Pubmed ID>
2231592

>  <DOI>
10.1021/jm00173a001

$$$$
163603
Actelion Java MolfileCreator 1.0

 22 25  0  0  1  0  0  0  0  0999 V2000
    0.0000   -0.0000   -0.0000 O   0  0  0  0  0  0  0  0  0  0  0  0
    1.2874    0.7689   -0.0000 C   0  0  0  0  0  0  0  0  0  0  0  0
    2.5749    0.0358   -0.0000 C   0  0  0  0  0  0  0  0  0  0  0  0
    1.2696    2.2888   -0.0000 C   0  0  0  0  0  0  0  0  0  0  0  0
    3.8444    0.8046   -0.0000 C   0  0  0  0  0  0  0  0  0  0  0  0
    2.5570    3.0577   -0.0000 C   0  0  0  0  0  0  0  0  0  0  0  0
    3.8265    2.3245   -0.0000 C   0  0  0  0  0  0  0  0  0  0  0  0
    5.1319    0.0715   -0.0000 C   0  0  0  0  0  0  0  0  0  0  0  0
    3.8087    3.8444   -0.0000 C   0  0  0  0  0  0  0  0  0  0  0  0
    5.1140    3.0934   -0.0000 C   0  0  0  0  0  0  0  0  0  0  0  0
    6.4193    0.8404   -0.0000 C   0  0  0  0  0  0  0  0  0  0  0  0
    2.4855    4.6133   -0.0000 C   0  0  0  0  0  0  0  0  0  0  0  0
    6.3835    2.3424   -0.0000 C   0  0  0  0  0  0  0  0  0  0  0  0
    5.0782    4.6312   -0.0000 C   0  0  0  0  0  0  0  0  0  0  0  0
    7.6888    3.2722   -0.0000 C   0  0  0  0  0  0  0  0  0  0  0  0
    6.4014    5.3643   -0.0000 C   0  0  0  0  0  0  0  0  0  0  0  0
    7.6710    4.5954   -0.0000 C   0  0  0  0  0  0  0  0  0  0  0  0
    9.9418    3.2901   -0.0000 C   0  0  0  0  0  0  0  0  0  0  0  0
    8.7975    5.2749   -0.0000 C   0  0  0  0  0  0  0  0  0  0  0  0
    7.6531    6.1153   -0.0000 C   0  0  0  0  0  0  0  0  0  0  0  0
    9.9240    4.6133   -0.0000 C   0  0  0  0  0  0  0  0  0  0  0  0
    8.7796    6.6160   -0.0000 O   0  0  0  0  0  0  0  0  0  0  0  0
  1  2  2  0  0  0  0
  2  3  1  0  0  0  0
  2  4  1  0  0  0  0
  3  5  2  0  0  0  0
  4  6  1  0  0  0  0
  5  7  1  0  0  0  0
  5  8  1  0  0  0  0
  7  9  1  1  0  0  0
  7 10  1  0  0  0  0
  8 11  1  0  0  0  0
  9 12  2  0  0  0  0
 10 13  1  0  0  0  0
 10 14  1  0  0  0  0
 13 15  1  0  0  0  0
 14 16  1  0  0  0  0
 15 17  1  0  0  0  0
 15 18  1  0  0  0  0
 17 19  1  0  0  0  0
 17 20  1  1  0  0  0
 18 21  1  0  0  0  0
 19 22  2  0  0  0  0
  6  7  1  0  0  0  0
 11 13  1  0  0  0  0
 16 17  1  0  0  0  0
 19 21  1  0  0  0  0
M  END
>  <MolRegNo>
163603

>  <m>
=

>  <Value>
3

>  <Unit>
nM

>  <Type>
Ki

>  <pValue>
8.52

>  <Ligand Efficiency>
0.53

>  <Binding Efficiency>
28.56

>  <Surface Efficiency>
24.96

>  <Assay Index>
50795

>  <Assay Category>


>  <Assay Organism>


>  <Target ID>
65

>  <Target Name>
Cytochrome P450 19A1

>  <Target Organism>
Homo sapiens

>  <Target Description>
Target is a single protein chain

>  <Sequence Accession>
P11511

>  <Reference>
J Med Chem 33 (11), 2933-2942 (1990)

>  <Pubmed ID>
2231592

>  <DOI>
10.1021/jm00173a001

$$$$
163604
Actelion Java MolfileCreator 1.0

 22 25  0  0  1  0  0  0  0  0999 V2000
    0.0000   -0.0000   -0.0000 O   0  0  0  0  0  0  0  0  0  0  0  0
    1.2874    0.7689   -0.0000 C   0  0  0  0  0  0  0  0  0  0  0  0
    2.5749    0.0358   -0.0000 C   0  0  0  0  0  0  0  0  0  0  0  0
    1.2696    2.2888   -0.0000 C   0  0  0  0  0  0  0  0  0  0  0  0
    3.8444    0.8046   -0.0000 C   0  0  0  0  0  0  0  0  0  0  0  0
    2.5570    3.0577   -0.0000 C   0  0  0  0  0  0  0  0  0  0  0  0
    3.8265    2.3245   -0.0000 C   0  0  0  0  0  0  0  0  0  0  0  0
    5.1319    0.0715   -0.0000 C   0  0  0  0  0  0  0  0  0  0  0  0
    5.1140    3.0934   -0.0000 C   0  0  0  0  0  0  0  0  0  0  0  0
    3.8087    3.8444   -0.0000 C   0  0  0  0  0  0  0  0  0  0  0  0
    6.4193    0.8404   -0.0000 C   0  0  0  0  0  0  0  0  0  0  0  0
    6.3835    2.3424   -0.0000 C   0  0  0  0  0  0  0  0  0  0  0  0
    5.0782    4.6312   -0.0000 C   0  0  0  0  0  0  0  0  0  0  0  0
    2.4855    4.6133   -0.0000 C   0  0  0  0  0  0  0  0  0  0  0  0
    7.6888    3.2722   -0.0000 C   0  0  0  0  0  0  0  0  0  0  0  0
    6.4014    5.3643   -0.0000 C   0  0  0  0  0  0  0  0  0  0  0  0
    7.6710    4.5954   -0.0000 C   0  0  0  0  0  0  0  0  0  0  0  0
    9.9418    3.2901   -0.0000 C   0  0  0  0  0  0  0  0  0  0  0  0
    8.7975    5.2749   -0.0000 C   0  0  0  0  0  0  0  0  0  0  0  0
    7.6531    6.1153   -0.0000 C   0  0  0  0  0  0  0  0  0  0  0  0
    9.9240    4.6133   -0.0000 C   0  0  0  0  0  0  0  0  0  0  0  0
    8.7796    6.6160   -0.0000 O   0  0  0  0  0  0  0  0  0  0  0  0
  1  2  2  0  0  0  0
  2  3  1  0  0  0  0
  2  4  1  0  0  0  0
  3  5  2  0  0  0  0
  4  6  1  0  0  0  0
  5  7  1  0  0  0  0
  5  8  1  0  0  0  0
  7  9  1  0  0  0  0
  7 10  1  1  0  0  0
  8 11  1  0  0  0  0
  9 12  1  0  0  0  0
  9 13  1  0  0  0  0
 10 14  1  0  0  0  0
 12 15  1  0  0  0  0
 13 16  1  0  0  0  0
 15 17  1  0  0  0  0
 15 18  1  0  0  0  0
 17 19  1  0  0  0  0
 17 20  1  1  0  0  0
 18 21  1  0  0  0  0
 19 22  2  0  0  0  0
  6  7  1  0  0  0  0
 11 12  1  0  0  0  0
 16 17  1  0  0  0  0
 19 21  1  0  0  0  0
M  END
>  <MolRegNo>
163604

>  <m>
=

>  <Value>
9

>  <Unit>
nM

>  <Type>
Ki

>  <pValue>
8.05

>  <Ligand Efficiency>
0.5

>  <Binding Efficiency>
26.78

>  <Surface Efficiency>
23.57

>  <Assay Index>
50795

>  <Assay Category>


>  <Assay Organism>


>  <Target ID>
65

>  <Target Name>
Cytochrome P450 19A1

>  <Target Organism>
Homo sapiens

>  <Target Description>
Target is a single protein chain

>  <Sequence Accession>
P11511

>  <Reference>
J Med Chem 33 (11), 2933-2942 (1990)

>  <Pubmed ID>
2231592

>  <DOI>
10.1021/jm00173a001

$$$$
163229
Actelion Java MolfileCreator 1.0

 23 26  0  0  1  0  0  0  0  0999 V2000
    0.0000   -0.0000   -0.0000 F   0  0  0  0  0  0  0  0  0  0  0  0
    1.4483   -0.3576   -0.0000 C   0  0  0  0  0  0  0  0  0  0  0  0
    1.8238    1.1265   -0.0000 F   0  0  0  0  0  0  0  0  0  0  0  0
    1.4304   -1.8417   -0.0000 C   0  0  0  0  0  0  0  0  0  0  0  0
    1.4126   -3.3258   -0.0000 C   0  0  0  0  0  0  0  0  0  0  0  0
    2.7178   -1.0728   -0.0000 C   0  0  0  0  0  0  0  0  0  0  0  0
    0.1073   -1.0549   -0.0000 C   0  0  0  0  0  0  0  0  0  0  0  0
    0.1073   -4.0410   -0.0000 C   0  0  0  0  0  0  0  0  0  0  0  0
    2.7000   -4.0589   -0.0000 C   0  0  0  0  0  0  0  0  0  0  0  0
    3.9874   -1.8059   -0.0000 C   0  0  0  0  0  0  0  0  0  0  0  0
    2.6821    0.4649   -0.0000 C   0  0  0  0  0  0  0  0  0  0  0  0
   -1.2159   -1.8059   -0.0000 C   0  0  0  0  0  0  0  0  0  0  0  0
   -1.2159   -3.2900   -0.0000 C   0  0  0  0  0  0  0  0  0  0  0  0
    3.9874   -3.2900   -0.0000 C   0  0  0  0  0  0  0  0  0  0  0  0
    5.2926   -0.8761   -0.0000 C   0  0  0  0  0  0  0  0  0  0  0  0
    4.0052    1.2159   -0.0000 C   0  0  0  0  0  0  0  0  0  0  0  0
   -2.5390   -4.0231   -0.0000 O   0  0  0  0  0  0  0  0  0  0  0  0
    5.2747    0.4470   -0.0000 C   0  0  0  0  0  0  0  0  0  0  0  0
    7.5456   -0.8583   -0.0000 C   0  0  0  0  0  0  0  0  0  0  0  0
    6.4012    1.1265   -0.0000 C   0  0  0  0  0  0  0  0  0  0  0  0
    5.2569    1.9669   -0.0000 C   0  0  0  0  0  0  0  0  0  0  0  0
    7.5277    0.4649   -0.0000 C   0  0  0  0  0  0  0  0  0  0  0  0
    6.3833    2.4496   -0.0000 O   0  0  0  0  0  0  0  0  0  0  0  0
  1  2  1  0  0  0  0
  2  3  1  0  0  0  0
  4  2  1  1  0  0  0
  4  5  1  0  0  0  0
  4  6  1  0  0  0  0
  4  7  1  0  0  0  0
  5  8  2  0  0  0  0
  5  9  1  0  0  0  0
  6 10  1  0  0  0  0
  6 11  1  0  0  0  0
  7 12  1  0  0  0  0
  8 13  1  0  0  0  0
  9 14  1  0  0  0  0
 10 15  1  0  0  0  0
 11 16  1  0  0  0  0
 13 17  2  0  0  0  0
 15 18  1  0  0  0  0
 15 19  1  0  0  0  0
 18 20  1  0  0  0  0
 18 21  1  1  0  0  0
 19 22  1  0  0  0  0
 20 23  2  0  0  0  0
 10 14  1  0  0  0  0
 12 13  1  0  0  0  0
 16 18  1  0  0  0  0
 20 22  1  0  0  0  0
M  END
>  <MolRegNo>
163229

>  <m>
=

>  <Value>
1

>  <Unit>
nM

>  <Type>
Ki

>  <pValue>
9

>  <Ligand Efficiency>
0.53

>  <Binding Efficiency>
27.92

>  <Surface Efficiency>
26.36

>  <Assay Index>
50795

>  <Assay Category>


>  <Assay Organism>


>  <Target ID>
65

>  <Target Name>
Cytochrome P450 19A1

>  <Target Organism>
Homo sapiens

>  <Target Description>
Target is a single protein chain

>  <Sequence Accession>
P11511

>  <Reference>
J Med Chem 33 (11), 2933-2942 (1990)

>  <Pubmed ID>
2231592

>  <DOI>
10.1021/jm00173a001

$$$$
163399
Actelion Java MolfileCreator 1.0

 31 35  0  0  1  0  0  0  0  0999 V2000
    0.0000   -0.0000   -0.0000 S   0  0  0  0  0  0  0  0  0  0  0  0
   -0.0178   -1.4749   -0.0000 C   0  0  0  0  0  0  0  0  0  0  0  0
   -1.3149    0.7819   -0.0000 C   0  0  0  0  0  0  0  0  0  0  0  0
   -1.3505   -2.1856   -0.0000 C   0  0  0  0  0  0  0  0  0  0  0  0
    1.2439   -2.1856   -0.0000 C   0  0  0  0  0  0  0  0  0  0  0  0
   -1.3327    2.2922   -0.0000 C   0  0  0  0  0  0  0  0  0  0  0  0
   -2.6299    0.0533   -0.0000 C   0  0  0  0  0  0  0  0  0  0  0  0
   -1.3682   -3.6605   -0.0000 C   0  0  0  0  0  0  0  0  0  0  0  0
    1.2261   -3.6605   -0.0000 C   0  0  0  0  0  0  0  0  0  0  0  0
   -2.6476    3.0741   -0.0000 C   0  0  0  0  0  0  0  0  0  0  0  0
   -0.0178    3.2162   -0.0000 C   0  0  0  0  0  0  0  0  0  0  0  0
   -3.9448    0.8174   -0.0000 C   0  0  0  0  0  0  0  0  0  0  0  0
   -0.0888   -4.3890   -0.0000 C   0  0  0  0  0  0  0  0  0  0  0  0
   -3.9626    2.3456   -0.0000 C   0  0  0  0  0  0  0  0  0  0  0  0
   -2.6476    4.5845   -0.0000 C   0  0  0  0  0  0  0  0  0  0  0  0
   -0.0355    4.5489   -0.0000 C   0  0  0  0  0  0  0  0  0  0  0  0
    2.2212    3.2340   -0.0000 C   0  0  0  0  0  0  0  0  0  0  0  0
   -5.2597    0.0888   -0.0000 C   0  0  0  0  0  0  0  0  0  0  0  0
   -0.1066   -5.8639   -0.0000 N   0  0  0  0  0  0  0  0  0  0  0  0
   -5.2775    3.1274   -0.0000 C   0  0  0  0  0  0  0  0  0  0  0  0
   -3.9803    3.8559   -0.0000 C   0  0  0  0  0  0  0  0  0  0  0  0
   -1.3505    5.3308   -0.0000 C   0  0  0  0  0  0  0  0  0  0  0  0
    1.0662    5.2242   -0.0000 C   0  0  0  0  0  0  0  0  0  0  0  0
   -0.0711    6.0593   -0.0000 C   0  0  0  0  0  0  0  0  0  0  0  0
    2.2034    4.5667   -0.0000 C   0  0  0  0  0  0  0  0  0  0  0  0
   -6.5569    0.8529   -0.0000 C   0  0  0  0  0  0  0  0  0  0  0  0
   -0.1244   -7.3387   -0.0000 N   0  0  0  0  0  0  0  0  0  0  0  0
   -6.5747    2.3811   -0.0000 C   0  0  0  0  0  0  0  0  0  0  0  0
    1.0662    6.5569   -0.0000 O   0  0  0  0  0  0  0  0  0  0  0  0
   -7.8896    0.1244   -0.0000 O   0  0  0  0  0  0  0  0  0  0  0  0
   -0.1422   -8.8136   -0.0000 N   0  0  0  0  0  0  0  0  0  0  0  0
  1  2  1  0  0  0  0
  3  1  1  6  0  0  0
  2  4  2  0  0  0  0
  2  5  1  0  0  0  0
  3  6  1  0  0  0  0
  3  7  1  0  0  0  0
  4  8  1  0  0  0  0
  5  9  2  0  0  0  0
  6 10  1  0  0  0  0
  6 11  1  0  0  0  0
  7 12  1  0  0  0  0
  8 13  2  0  0  0  0
 10 14  1  0  0  0  0
 10 15  1  0  0  0  0
 11 16  1  0  0  0  0
 11 17  1  0  0  0  0
 12 18  2  0  0  0  0
 13 19  1  0  0  0  0
 14 20  1  0  0  0  0
 14 21  1  1  0  0  0
 15 22  1  0  0  0  0
 16 23  1  0  0  0  0
 16 24  1  1  0  0  0
 17 25  1  0  0  0  0
 18 26  1  0  0  0  0
 19 27  2  0  0  0  0
 20 28  1  0  0  0  0
 23 29  2  0  0  0  0
 26 30  2  0  0  0  0
 27 31  2  0  0  0  0
  9 13  1  0  0  0  0
 12 14  1  0  0  0  0
 16 22  1  0  0  0  0
 23 25  1  0  0  0  0
 26 28  1  0  0  0  0
M  CHG  2  27   1  31  -1
M  END
>  <MolRegNo>
163399

>  <m>
=

>  <Value>
1.3

>  <Unit>
nM

>  <Type>
Ki

>  <pValue>
8.89

>  <Ligand Efficiency>
0.39

>  <Binding Efficiency>
20.4

>  <Surface Efficiency>
10.72

>  <Assay Index>
50795

>  <Assay Category>


>  <Assay Organism>


>  <Target ID>
65

>  <Target Name>
Cytochrome P450 19A1

>  <Target Organism>
Homo sapiens

>  <Target Description>
Target is a single protein chain

>  <Sequence Accession>
P11511

>  <Reference>
J Med Chem 33 (11), 2933-2942 (1990)

>  <Pubmed ID>
2231592

>  <DOI>
10.1021/jm00173a001

$$$$
1510589
Actelion Java MolfileCreator 1.0

 21 24  0  0  1  0  0  0  0  0999 V2000
    0.0000   -0.0000   -0.0000 O   0  0  0  0  0  0  0  0  0  0  0  0
    1.3032    0.7676   -0.0000 C   0  0  0  0  0  0  0  0  0  0  0  0
    2.5707    0.0536   -0.0000 C   0  0  0  0  0  0  0  0  0  0  0  0
    1.2854    2.2851   -0.0000 C   0  0  0  0  0  0  0  0  0  0  0  0
    3.8561    0.8033   -0.0000 C   0  0  0  0  0  0  0  0  0  0  0  0
    2.5529    3.0706   -0.0000 C   0  0  0  0  0  0  0  0  0  0  0  0
    5.1414    0.0714   -0.0000 C   0  0  0  0  0  0  0  0  0  0  0  0
    3.8382    2.3208   -0.0000 C   0  0  0  0  0  0  0  0  0  0  0  0
    6.4268    0.8390   -0.0000 C   0  0  0  0  0  0  0  0  0  0  0  0
    5.1236    3.0884   -0.0000 C   0  0  0  0  0  0  0  0  0  0  0  0
    3.8204    3.8382   -0.0000 C   0  0  0  0  0  0  0  0  0  0  0  0
    6.4089    2.3565   -0.0000 C   0  0  0  0  0  0  0  0  0  0  0  0
    5.1057    4.6237   -0.0000 C   0  0  0  0  0  0  0  0  0  0  0  0
    7.7300    3.2848   -0.0000 C   0  0  0  0  0  0  0  0  0  0  0  0
    6.4268    5.3735   -0.0000 C   0  0  0  0  0  0  0  0  0  0  0  0
    7.6943    4.6058   -0.0000 C   0  0  0  0  0  0  0  0  0  0  0  0
    9.9793    3.3026   -0.0000 C   0  0  0  0  0  0  0  0  0  0  0  0
    8.8011    5.3021   -0.0000 C   0  0  0  0  0  0  0  0  0  0  0  0
    7.6764    6.1233   -0.0000 C   0  0  0  0  0  0  0  0  0  0  0  0
    9.9615    4.6416   -0.0000 C   0  0  0  0  0  0  0  0  0  0  0  0
    8.7654    6.6231   -0.0000 O   0  0  0  0  0  0  0  0  0  0  0  0
  1  2  2  0  0  0  0
  2  3  1  0  0  0  0
  2  4  1  0  0  0  0
  3  5  2  0  0  0  0
  4  6  2  0  0  0  0
  5  7  1  0  0  0  0
  5  8  1  0  0  0  0
  7  9  2  0  0  0  0
  8 10  1  0  0  0  0
  8 11  1  1  0  0  0
 12  9  1  6  0  0  0
 10 13  1  1  0  0  0
 12 14  1  0  0  0  0
 13 15  1  0  0  0  0
 14 16  1  0  0  0  0
 14 17  1  1  0  0  0
 16 18  1  0  0  0  0
 16 19  1  1  0  0  0
 17 20  1  0  0  0  0
 18 21  2  0  0  0  0
  6  8  1  0  0  0  0
 10 12  1  0  0  0  0
 15 16  1  0  0  0  0
 18 20  1  0  0  0  0
M  END
>  <MolRegNo>
1510589

>  <m>
=

>  <Value>
180

>  <Unit>
nM

>  <Type>
Ki

>  <pValue>
6.75

>  <Ligand Efficiency>
0.44

>  <Binding Efficiency>
23.89

>  <Surface Efficiency>
19.76

>  <Assay Index>
50795

>  <Assay Category>


>  <Assay Organism>


>  <Target ID>
65

>  <Target Name>
Cytochrome P450 19A1

>  <Target Organism>
Homo sapiens

>  <Target Description>
Target is a single protein chain

>  <Sequence Accession>
P11511

>  <Reference>
J Med Chem 33 (11), 2933-2942 (1990)

>  <Pubmed ID>
2231592

>  <DOI>
10.1021/jm00173a001

$$$$
4920
Actelion Java MolfileCreator 1.0

 17 19  0  0  0  0  0  0  0  0999 V2000
    0.0000   -0.0000   -0.0000 N   0  0  0  0  0  0  0  0  0  0  0  0
   -1.0560    0.6170   -0.0000 C   0  0  0  0  0  0  0  0  0  0  0  0
   -2.3731    1.3883   -0.0000 C   0  0  0  0  0  0  0  0  0  0  0  0
   -2.3849    2.9070   -0.0000 C   0  0  0  0  0  0  0  0  0  0  0  0
   -3.6901    0.6526   -0.0000 C   0  0  0  0  0  0  0  0  0  0  0  0
   -3.7020    3.6783   -0.0000 C   0  0  0  0  0  0  0  0  0  0  0  0
   -5.0072    1.4238   -0.0000 C   0  0  0  0  0  0  0  0  0  0  0  0
   -5.0191    2.9426   -0.0000 C   0  0  0  0  0  0  0  0  0  0  0  0
   -6.3361    3.7139   -0.0000 C   0  0  0  0  0  0  0  0  0  0  0  0
   -7.6532    2.9664   -0.0000 N   0  0  0  0  0  0  0  0  0  0  0  0
   -6.3480    5.2326   -0.0000 C   0  0  0  0  0  0  0  0  0  0  0  0
   -8.9703    3.7257   -0.0000 C   0  0  0  0  0  0  0  0  0  0  0  0
   -7.9736    1.5069   -0.0000 C   0  0  0  0  0  0  0  0  0  0  0  0
   -7.6651    5.9920   -0.0000 C   0  0  0  0  0  0  0  0  0  0  0  0
  -10.0975    2.7290   -0.0000 C   0  0  0  0  0  0  0  0  0  0  0  0
   -8.9821    5.2445   -0.0000 C   0  0  0  0  0  0  0  0  0  0  0  0
   -9.4805    1.3645   -0.0000 N   0  0  0  0  0  0  0  0  0  0  0  0
  1  2  3  0  0  0  0
  2  3  1  0  0  0  0
  3  4  2  0  0  0  0
  3  5  1  0  0  0  0
  4  6  1  0  0  0  0
  5  7  2  0  0  0  0
  6  8  2  0  0  0  0
  8  9  1  0  0  0  0
  9 10  1  0  0  0  0
  9 11  1  0  0  0  0
 10 12  1  0  0  0  0
 10 13  1  0  0  0  0
 11 14  1  0  0  0  0
 12 15  2  0  0  0  0
 12 16  1  0  0  0  0
 13 17  2  0  0  0  0
  7  8  1  0  0  0  0
 14 16  1  0  0  0  0
 15 17  1  0  0  0  0
M  END
>  <MolRegNo>
4920

>  <m>
=

>  <Value>
1.5

>  <Unit>
nM

>  <Type>
Ki

>  <pValue>
8.82

>  <Ligand Efficiency>
0.71

>  <Binding Efficiency>
39.52

>  <Surface Efficiency>
21.21

>  <Assay Index>
50795

>  <Assay Category>


>  <Assay Organism>


>  <Target ID>
65

>  <Target Name>
Cytochrome P450 19A1

>  <Target Organism>
Homo sapiens

>  <Target Description>
Target is a single protein chain

>  <Sequence Accession>
P11511

>  <Reference>
J Med Chem 33 (11), 2933-2942 (1990)

>  <Pubmed ID>
2231592

>  <DOI>
10.1021/jm00173a001

$$$$
163411
Actelion Java MolfileCreator 1.0

 22 25  0  0  1  0  0  0  0  0999 V2000
    0.0000   -0.0000   -0.0000 O   0  0  0  0  0  0  0  0  0  0  0  0
    1.2949    0.7603   -0.0000 C   0  0  0  0  0  0  0  0  0  0  0  0
    2.5779    0.0238   -0.0000 C   0  0  0  0  0  0  0  0  0  0  0  0
    1.2830    2.2809   -0.0000 C   0  0  0  0  0  0  0  0  0  0  0  0
    2.5661   -1.4731   -0.0000 N   0  0  0  0  0  0  0  0  0  0  0  0
    3.8729    0.7841   -0.0000 C   0  0  0  0  0  0  0  0  0  0  0  0
    2.5661    3.0413   -0.0000 C   0  0  0  0  0  0  0  0  0  0  0  0
    3.8491    2.3047   -0.0000 C   0  0  0  0  0  0  0  0  0  0  0  0
    5.1559    0.0475   -0.0000 C   0  0  0  0  0  0  0  0  0  0  0  0
    5.1440    3.0650   -0.0000 C   0  0  0  0  0  0  0  0  0  0  0  0
    3.8253    3.8253   -0.0000 C   0  0  0  0  0  0  0  0  0  0  0  0
    6.4508    0.8078   -0.0000 C   0  0  0  0  0  0  0  0  0  0  0  0
    6.4152    2.3285   -0.0000 C   0  0  0  0  0  0  0  0  0  0  0  0
    5.1321    4.5856   -0.0000 C   0  0  0  0  0  0  0  0  0  0  0  0
    7.7219    3.0888   -0.0000 C   0  0  0  0  0  0  0  0  0  0  0  0
    6.4270    5.3341   -0.0000 C   0  0  0  0  0  0  0  0  0  0  0  0
    7.7219    4.5856   -0.0000 C   0  0  0  0  0  0  0  0  0  0  0  0
    9.1356    2.6255   -0.0000 C   0  0  0  0  0  0  0  0  0  0  0  0
    9.1238    5.0490   -0.0000 C   0  0  0  0  0  0  0  0  0  0  0  0
    7.6982    6.1063   -0.0000 C   0  0  0  0  0  0  0  0  0  0  0  0
   10.0029    3.8491   -0.0000 C   0  0  0  0  0  0  0  0  0  0  0  0
    9.5871    6.4983   -0.0000 O   0  0  0  0  0  0  0  0  0  0  0  0
  1  2  2  0  0  0  0
  2  3  1  0  0  0  0
  2  4  1  0  0  0  0
  3  5  1  0  0  0  0
  3  6  2  0  0  0  0
  4  7  1  0  0  0  0
  6  8  1  0  0  0  0
  6  9  1  0  0  0  0
  8 10  1  0  0  0  0
  8 11  1  1  0  0  0
  9 12  1  0  0  0  0
 10 13  1  0  0  0  0
 10 14  1  0  0  0  0
 13 15  1  0  0  0  0
 14 16  1  0  0  0  0
 15 17  1  0  0  0  0
 15 18  1  0  0  0  0
 17 19  1  0  0  0  0
 17 20  1  1  0  0  0
 18 21  1  0  0  0  0
 19 22  2  0  0  0  0
  7  8  1  0  0  0  0
 12 13  1  0  0  0  0
 16 17  1  0  0  0  0
 19 21  1  0  0  0  0
M  END
>  <MolRegNo>
163411

>  <m>
=

>  <Value>
37

>  <Unit>
nM

>  <Type>
Ki

>  <pValue>
7.43

>  <Ligand Efficiency>
0.46

>  <Binding Efficiency>
24.66

>  <Surface Efficiency>
12.35

>  <Assay Index>
50795

>  <Assay Category>


>  <Assay Organism>


>  <Target ID>
65

>  <Target Name>
Cytochrome P450 19A1

>  <Target Organism>
Homo sapiens

>  <Target Description>
Target is a single protein chain

>  <Sequence Accession>
P11511

>  <Reference>
J Med Chem 33 (11), 2933-2942 (1990)

>  <Pubmed ID>
2231592

>  <DOI>
10.1021/jm00173a001

$$$$
5481
Actelion Java MolfileCreator 1.0

 29 33  0  0  0  0  0  0  0  0999 V2000
    0.0000   -0.0000   -0.0000 O   0  0  0  0  0  0  0  0  0  0  0  0
    1.2584    0.7790   -0.0000 C   0  0  0  0  0  0  0  0  0  0  0  0
    2.4968    0.0599   -0.0000 C   0  0  0  0  0  0  0  0  0  0  0  0
    1.2384    2.2571   -0.0000 C   0  0  0  0  0  0  0  0  0  0  0  0
    3.7551    0.8189   -0.0000 C   0  0  0  0  0  0  0  0  0  0  0  0
    2.4768    3.0361   -0.0000 C   0  0  0  0  0  0  0  0  0  0  0  0
    5.0135    0.0799   -0.0000 C   0  0  0  0  0  0  0  0  0  0  0  0
    3.7352    2.2970   -0.0000 C   0  0  0  0  0  0  0  0  0  0  0  0
    6.2719    0.8189   -0.0000 C   0  0  0  0  0  0  0  0  0  0  0  0
    4.9935    3.0560   -0.0000 C   0  0  0  0  0  0  0  0  0  0  0  0
    3.7152    3.7951   -0.0000 C   0  0  0  0  0  0  0  0  0  0  0  0
    6.2519    2.3170   -0.0000 C   0  0  0  0  0  0  0  0  0  0  0  0
    7.5302    0.0999   -0.0000 C   0  0  0  0  0  0  0  0  0  0  0  0
    4.9935    4.5541   -0.0000 C   0  0  0  0  0  0  0  0  0  0  0  0
    7.5102    3.0560   -0.0000 C   0  0  0  0  0  0  0  0  0  0  0  0
    7.5102   -1.3582   -0.0000 C   0  0  0  0  0  0  0  0  0  0  0  0
    6.2719    5.2931   -0.0000 C   0  0  0  0  0  0  0  0  0  0  0  0
    7.5102    4.5341   -0.0000 C   0  0  0  0  0  0  0  0  0  0  0  0
   10.0270    3.0361   -0.0000 C   0  0  0  0  0  0  0  0  0  0  0  0
    8.7686   -2.0773   -0.0000 C   0  0  0  0  0  0  0  0  0  0  0  0
    8.7686    5.2732   -0.0000 C   0  0  0  0  0  0  0  0  0  0  0  0
    7.4903    6.0322   -0.0000 C   0  0  0  0  0  0  0  0  0  0  0  0
   10.0270    4.5141   -0.0000 C   0  0  0  0  0  0  0  0  0  0  0  0
   10.0270   -1.3183   -0.0000 C   0  0  0  0  0  0  0  0  0  0  0  0
    8.7486   -3.5354   -0.0000 C   0  0  0  0  0  0  0  0  0  0  0  0
    8.7686    6.7712   -0.0000 O   0  0  0  0  0  0  0  0  0  0  0  0
   11.2853   -2.0374   -0.0000 C   0  0  0  0  0  0  0  0  0  0  0  0
   10.0070   -4.2545   -0.0000 C   0  0  0  0  0  0  0  0  0  0  0  0
   11.2654   -3.4955   -0.0000 C   0  0  0  0  0  0  0  0  0  0  0  0
  1  2  2  0  0  0  0
  2  3  1  0  0  0  0
  2  4  1  0  0  0  0
  3  5  2  0  0  0  0
  4  6  1  0  0  0  0
  5  7  1  0  0  0  0
  5  8  1  0  0  0  0
  7  9  2  0  0  0  0
  8 10  1  0  0  0  0
  8 11  1  0  0  0  0
  9 12  1  0  0  0  0
  9 13  1  0  0  0  0
 10 14  1  0  0  0  0
 12 15  1  0  0  0  0
 13 16  1  0  0  0  0
 14 17  1  0  0  0  0
 15 18  1  0  0  0  0
 15 19  1  0  0  0  0
 16 20  1  0  0  0  0
 18 21  1  0  0  0  0
 18 22  1  0  0  0  0
 19 23  1  0  0  0  0
 20 24  2  0  0  0  0
 20 25  1  0  0  0  0
 21 26  2  0  0  0  0
 24 27  1  0  0  0  0
 25 28  2  0  0  0  0
 27 29  2  0  0  0  0
  6  8  1  0  0  0  0
 10 12  1  0  0  0  0
 17 18  1  0  0  0  0
 21 23  1  0  0  0  0
 28 29  1  0  0  0  0
M  END
>  <MolRegNo>
5481

>  <m>
=

>  <Value>
174

>  <Unit>
nM

>  <Type>
Ki

>  <pValue>
6.76

>  <Ligand Efficiency>
0.32

>  <Binding Efficiency>
17.4

>  <Surface Efficiency>
19.8

>  <Assay Index>
50932

>  <Assay Category>


>  <Assay Organism>
Homo sapiens

>  <Target ID>
65

>  <Target Name>
Cytochrome P450 19A1

>  <Target Organism>
Homo sapiens

>  <Target Description>
Target is a single protein chain

>  <Sequence Accession>
P11511

>  <Reference>
J Med Chem 33 (1), 101-105 (1990)

>  <Pubmed ID>
2296006

>  <DOI>
10.1021/jm00163a017

$$$$
5448
Actelion Java MolfileCreator 1.0

 29 33  0  0  0  0  0  0  0  0999 V2000
    0.0000   -0.0000   -0.0000 O   0  0  0  0  0  0  0  0  0  0  0  0
    1.2581    0.7788   -0.0000 C   0  0  0  0  0  0  0  0  0  0  0  0
    2.4963    0.0599   -0.0000 C   0  0  0  0  0  0  0  0  0  0  0  0
    1.2382    2.2567   -0.0000 C   0  0  0  0  0  0  0  0  0  0  0  0
    3.7545    0.8188   -0.0000 C   0  0  0  0  0  0  0  0  0  0  0  0
    2.4763    3.0355   -0.0000 C   0  0  0  0  0  0  0  0  0  0  0  0
    5.0126    0.0799   -0.0000 C   0  0  0  0  0  0  0  0  0  0  0  0
    3.7345    2.2966   -0.0000 C   0  0  0  0  0  0  0  0  0  0  0  0
    6.2707    0.8188   -0.0000 C   0  0  0  0  0  0  0  0  0  0  0  0
    4.9926    3.0555   -0.0000 C   0  0  0  0  0  0  0  0  0  0  0  0
    3.7145    3.7944   -0.0000 C   0  0  0  0  0  0  0  0  0  0  0  0
    6.2508    2.3166   -0.0000 C   0  0  0  0  0  0  0  0  0  0  0  0
    7.5289    0.0999   -0.0000 C   0  0  0  0  0  0  0  0  0  0  0  0
    4.9926    4.5533   -0.0000 C   0  0  0  0  0  0  0  0  0  0  0  0
    7.5089    3.0555   -0.0000 C   0  0  0  0  0  0  0  0  0  0  0  0
    7.5089   -1.3580   -0.0000 C   0  0  0  0  0  0  0  0  0  0  0  0
    6.2707    5.2922   -0.0000 C   0  0  0  0  0  0  0  0  0  0  0  0
    7.5089    4.5333   -0.0000 C   0  0  0  0  0  0  0  0  0  0  0  0
   10.0252    3.0355   -0.0000 C   0  0  0  0  0  0  0  0  0  0  0  0
    8.7471   -2.0769   -0.0000 C   0  0  0  0  0  0  0  0  0  0  0  0
    6.1909   -2.0570   -0.0000 C   0  0  0  0  0  0  0  0  0  0  0  0
    8.7670    5.2722   -0.0000 C   0  0  0  0  0  0  0  0  0  0  0  0
    7.4889    6.0311   -0.0000 C   0  0  0  0  0  0  0  0  0  0  0  0
   10.0252    4.5133   -0.0000 C   0  0  0  0  0  0  0  0  0  0  0  0
    8.7271   -3.5148   -0.0000 C   0  0  0  0  0  0  0  0  0  0  0  0
    6.1709   -3.5148   -0.0000 C   0  0  0  0  0  0  0  0  0  0  0  0
    8.7670    6.7700   -0.0000 O   0  0  0  0  0  0  0  0  0  0  0  0
    7.4290   -4.2337   -0.0000 C   0  0  0  0  0  0  0  0  0  0  0  0
    7.4091   -5.6916   -0.0000 N   0  0  0  0  0  0  0  0  0  0  0  0
  1  2  2  0  0  0  0
  2  3  1  0  0  0  0
  2  4  1  0  0  0  0
  3  5  2  0  0  0  0
  4  6  1  0  0  0  0
  5  7  1  0  0  0  0
  5  8  1  0  0  0  0
  7  9  2  0  0  0  0
  8 10  1  0  0  0  0
  8 11  1  0  0  0  0
  9 12  1  0  0  0  0
  9 13  1  0  0  0  0
 10 14  1  0  0  0  0
 12 15  1  0  0  0  0
 13 16  1  0  0  0  0
 14 17  1  0  0  0  0
 15 18  1  0  0  0  0
 15 19  1  0  0  0  0
 16 20  2  0  0  0  0
 16 21  1  0  0  0  0
 18 22  1  0  0  0  0
 18 23  1  0  0  0  0
 19 24  1  0  0  0  0
 20 25  1  0  0  0  0
 21 26  2  0  0  0  0
 22 27  2  0  0  0  0
 25 28  2  0  0  0  0
 28 29  1  0  0  0  0
  6  8  1  0  0  0  0
 10 12  1  0  0  0  0
 17 18  1  0  0  0  0
 22 24  1  0  0  0  0
 26 28  1  0  0  0  0
M  END
>  <MolRegNo>
5448

>  <m>
=

>  <Value>
88

>  <Unit>
nM

>  <Type>
Ki

>  <pValue>
7.06

>  <Ligand Efficiency>
0.33

>  <Binding Efficiency>
18.11

>  <Surface Efficiency>
11.73

>  <Assay Index>
50932

>  <Assay Category>


>  <Assay Organism>
Homo sapiens

>  <Target ID>
65

>  <Target Name>
Cytochrome P450 19A1

>  <Target Organism>
Homo sapiens

>  <Target Description>
Target is a single protein chain

>  <Sequence Accession>
P11511

>  <Reference>
J Med Chem 33 (1), 101-105 (1990)

>  <Pubmed ID>
2296006

>  <DOI>
10.1021/jm00163a017

$$$$
5290
Actelion Java MolfileCreator 1.0

 30 34  0  0  0  0  0  0  0  0999 V2000
    0.0000   -0.0000   -0.0000 O   0  0  0  0  0  0  0  0  0  0  0  0
    1.2593    0.7596   -0.0000 C   0  0  0  0  0  0  0  0  0  0  0  0
    2.5187    0.0400   -0.0000 C   0  0  0  0  0  0  0  0  0  0  0  0
    1.2393    2.2588   -0.0000 C   0  0  0  0  0  0  0  0  0  0  0  0
    3.7580    0.7996   -0.0000 C   0  0  0  0  0  0  0  0  0  0  0  0
    2.4987    3.0184   -0.0000 C   0  0  0  0  0  0  0  0  0  0  0  0
    5.0173    0.0800   -0.0000 C   0  0  0  0  0  0  0  0  0  0  0  0
    3.7380    2.2988   -0.0000 C   0  0  0  0  0  0  0  0  0  0  0  0
    6.2766    0.8196   -0.0000 C   0  0  0  0  0  0  0  0  0  0  0  0
    4.9973    3.0584   -0.0000 C   0  0  0  0  0  0  0  0  0  0  0  0
    3.7180    3.7980   -0.0000 C   0  0  0  0  0  0  0  0  0  0  0  0
    6.2567    2.3188   -0.0000 C   0  0  0  0  0  0  0  0  0  0  0  0
    7.5360    0.0999   -0.0000 C   0  0  0  0  0  0  0  0  0  0  0  0
    4.9773    4.5576   -0.0000 C   0  0  0  0  0  0  0  0  0  0  0  0
    7.5160    3.0784   -0.0000 C   0  0  0  0  0  0  0  0  0  0  0  0
    7.5160   -1.3593   -0.0000 C   0  0  0  0  0  0  0  0  0  0  0  0
    6.2567    5.2972   -0.0000 C   0  0  0  0  0  0  0  0  0  0  0  0
    7.5160    4.5576   -0.0000 C   0  0  0  0  0  0  0  0  0  0  0  0
   10.0346    3.0584   -0.0000 C   0  0  0  0  0  0  0  0  0  0  0  0
    8.7753   -2.0789   -0.0000 C   0  0  0  0  0  0  0  0  0  0  0  0
    8.7753    5.2972   -0.0000 C   0  0  0  0  0  0  0  0  0  0  0  0
    7.4960    6.0568   -0.0000 C   0  0  0  0  0  0  0  0  0  0  0  0
   10.0346    4.5376   -0.0000 C   0  0  0  0  0  0  0  0  0  0  0  0
    8.5554   -3.5381   -0.0000 C   0  0  0  0  0  0  0  0  0  0  0  0
   10.1146   -1.4792   -0.0000 C   0  0  0  0  0  0  0  0  0  0  0  0
    8.7753    6.7964   -0.0000 O   0  0  0  0  0  0  0  0  0  0  0  0
    9.6948   -4.3976   -0.0000 C   0  0  0  0  0  0  0  0  0  0  0  0
   11.2740   -2.3587   -0.0000 C   0  0  0  0  0  0  0  0  0  0  0  0
   11.0341   -3.8180   -0.0000 C   0  0  0  0  0  0  0  0  0  0  0  0
   12.1935   -4.6775   -0.0000 N   0  0  0  0  0  0  0  0  0  0  0  0
  1  2  2  0  0  0  0
  2  3  1  0  0  0  0
  2  4  1  0  0  0  0
  3  5  2  0  0  0  0
  4  6  1  0  0  0  0
  5  7  1  0  0  0  0
  5  8  1  0  0  0  0
  7  9  2  0  0  0  0
  8 10  1  0  0  0  0
  8 11  1  0  0  0  0
  9 12  1  0  0  0  0
  9 13  1  0  0  0  0
 10 14  1  0  0  0  0
 12 15  1  0  0  0  0
 13 16  1  0  0  0  0
 14 17  1  0  0  0  0
 15 18  1  0  0  0  0
 15 19  1  0  0  0  0
 16 20  1  0  0  0  0
 18 21  1  0  0  0  0
 18 22  1  0  0  0  0
 19 23  1  0  0  0  0
 20 24  2  0  0  0  0
 20 25  1  0  0  0  0
 21 26  2  0  0  0  0
 24 27  1  0  0  0  0
 25 28  2  0  0  0  0
 27 29  2  0  0  0  0
 29 30  1  0  0  0  0
  6  8  1  0  0  0  0
 10 12  1  0  0  0  0
 17 18  1  0  0  0  0
 21 23  1  0  0  0  0
 28 29  1  0  0  0  0
M  END
>  <MolRegNo>
5290

>  <m>
=

>  <Value>
88

>  <Unit>
nM

>  <Type>
Ki

>  <pValue>
7.06

>  <Ligand Efficiency>
0.32

>  <Binding Efficiency>
17.48

>  <Surface Efficiency>
11.73

>  <Assay Index>
50932

>  <Assay Category>


>  <Assay Organism>
Homo sapiens

>  <Target ID>
65

>  <Target Name>
Cytochrome P450 19A1

>  <Target Organism>
Homo sapiens

>  <Target Description>
Target is a single protein chain

>  <Sequence Accession>
P11511

>  <Reference>
J Med Chem 33 (1), 101-105 (1990)

>  <Pubmed ID>
2296006

>  <DOI>
10.1021/jm00163a017

$$$$
5373
Actelion Java MolfileCreator 1.0

 28 32  0  0  0  0  0  0  0  0999 V2000
    0.0000   -0.0000   -0.0000 O   0  0  0  0  0  0  0  0  0  0  0  0
    1.2570    0.7782   -0.0000 C   0  0  0  0  0  0  0  0  0  0  0  0
    2.4941    0.0599   -0.0000 C   0  0  0  0  0  0  0  0  0  0  0  0
    1.2371    2.2547   -0.0000 C   0  0  0  0  0  0  0  0  0  0  0  0
    3.7512    0.8181   -0.0000 C   0  0  0  0  0  0  0  0  0  0  0  0
    2.4742    3.0329   -0.0000 C   0  0  0  0  0  0  0  0  0  0  0  0
    5.0082    0.0798   -0.0000 C   0  0  0  0  0  0  0  0  0  0  0  0
    3.7312    2.2946   -0.0000 C   0  0  0  0  0  0  0  0  0  0  0  0
    6.2653    0.8181   -0.0000 C   0  0  0  0  0  0  0  0  0  0  0  0
    4.9883    3.0528   -0.0000 C   0  0  0  0  0  0  0  0  0  0  0  0
    3.7113    3.7911   -0.0000 C   0  0  0  0  0  0  0  0  0  0  0  0
    6.2453    2.3146   -0.0000 C   0  0  0  0  0  0  0  0  0  0  0  0
    7.5223    0.0998   -0.0000 C   0  0  0  0  0  0  0  0  0  0  0  0
    4.9883    4.5493   -0.0000 C   0  0  0  0  0  0  0  0  0  0  0  0
    7.5023    3.0528   -0.0000 C   0  0  0  0  0  0  0  0  0  0  0  0
    7.5023   -1.3568   -0.0000 C   0  0  0  0  0  0  0  0  0  0  0  0
    6.2653    5.2876   -0.0000 C   0  0  0  0  0  0  0  0  0  0  0  0
    7.5023    4.5293   -0.0000 C   0  0  0  0  0  0  0  0  0  0  0  0
   10.0164    3.0329   -0.0000 C   0  0  0  0  0  0  0  0  0  0  0  0
    8.7394   -2.0751   -0.0000 C   0  0  0  0  0  0  0  0  0  0  0  0
    6.1854   -2.0552   -0.0000 C   0  0  0  0  0  0  0  0  0  0  0  0
    8.7594    5.2676   -0.0000 C   0  0  0  0  0  0  0  0  0  0  0  0
    7.4824    6.0258   -0.0000 C   0  0  0  0  0  0  0  0  0  0  0  0
   10.0164    4.5094   -0.0000 C   0  0  0  0  0  0  0  0  0  0  0  0
    8.7195   -3.5117   -0.0000 C   0  0  0  0  0  0  0  0  0  0  0  0
    6.1655   -3.5117   -0.0000 C   0  0  0  0  0  0  0  0  0  0  0  0
    8.7594    6.7641   -0.0000 O   0  0  0  0  0  0  0  0  0  0  0  0
    7.4225   -4.2300   -0.0000 C   0  0  0  0  0  0  0  0  0  0  0  0
  1  2  2  0  0  0  0
  2  3  1  0  0  0  0
  2  4  1  0  0  0  0
  3  5  2  0  0  0  0
  4  6  1  0  0  0  0
  5  7  1  0  0  0  0
  5  8  1  0  0  0  0
  7  9  2  0  0  0  0
  8 10  1  0  0  0  0
  8 11  1  0  0  0  0
  9 12  1  0  0  0  0
  9 13  1  0  0  0  0
 10 14  1  0  0  0  0
 12 15  1  0  0  0  0
 13 16  1  0  0  0  0
 14 17  1  0  0  0  0
 15 18  1  0  0  0  0
 15 19  1  0  0  0  0
 16 20  2  0  0  0  0
 16 21  1  0  0  0  0
 18 22  1  0  0  0  0
 18 23  1  0  0  0  0
 19 24  1  0  0  0  0
 20 25  1  0  0  0  0
 21 26  2  0  0  0  0
 22 27  2  0  0  0  0
 25 28  2  0  0  0  0
  6  8  1  0  0  0  0
 10 12  1  0  0  0  0
 17 18  1  0  0  0  0
 22 24  1  0  0  0  0
 26 28  1  0  0  0  0
M  END
>  <MolRegNo>
5373

>  <m>
=

>  <Value>
61

>  <Unit>
nM

>  <Type>
Ki

>  <pValue>
7.21

>  <Ligand Efficiency>
0.35

>  <Binding Efficiency>
19.26

>  <Surface Efficiency>
21.13

>  <Assay Index>
50932

>  <Assay Category>


>  <Assay Organism>
Homo sapiens

>  <Target ID>
65

>  <Target Name>
Cytochrome P450 19A1

>  <Target Organism>
Homo sapiens

>  <Target Description>
Target is a single protein chain

>  <Sequence Accession>
P11511

>  <Reference>
J Med Chem 33 (1), 101-105 (1990)

>  <Pubmed ID>
2296006

>  <DOI>
10.1021/jm00163a017

$$$$
5396
Actelion Java MolfileCreator 1.0

 27 31  0  0  0  0  0  0  0  0999 V2000
    0.0000   -0.0000   -0.0000 O   0  0  0  0  0  0  0  0  0  0  0  0
    1.2559    0.7774   -0.0000 C   0  0  0  0  0  0  0  0  0  0  0  0
    2.4918    0.0598   -0.0000 C   0  0  0  0  0  0  0  0  0  0  0  0
    1.2359    2.2526   -0.0000 C   0  0  0  0  0  0  0  0  0  0  0  0
    3.7477    0.8173   -0.0000 C   0  0  0  0  0  0  0  0  0  0  0  0
    2.4719    3.0300   -0.0000 C   0  0  0  0  0  0  0  0  0  0  0  0
    5.0035    0.0797   -0.0000 C   0  0  0  0  0  0  0  0  0  0  0  0
    3.7277    2.2925   -0.0000 C   0  0  0  0  0  0  0  0  0  0  0  0
    6.2594    0.8173   -0.0000 C   0  0  0  0  0  0  0  0  0  0  0  0
    4.9836    3.0500   -0.0000 C   0  0  0  0  0  0  0  0  0  0  0  0
    3.7078    3.7875   -0.0000 C   0  0  0  0  0  0  0  0  0  0  0  0
    7.5153    0.0997   -0.0000 C   0  0  0  0  0  0  0  0  0  0  0  0
    6.2395    2.3124   -0.0000 C   0  0  0  0  0  0  0  0  0  0  0  0
    4.9836    4.5451   -0.0000 C   0  0  0  0  0  0  0  0  0  0  0  0
    8.7712    0.8572   -0.0000 C   0  0  0  0  0  0  0  0  0  0  0  0
    7.4954   -1.3555   -0.0000 C   0  0  0  0  0  0  0  0  0  0  0  0
    7.4954    3.0500   -0.0000 C   0  0  0  0  0  0  0  0  0  0  0  0
    6.2594    5.2826   -0.0000 C   0  0  0  0  0  0  0  0  0  0  0  0
   10.0270    0.1395   -0.0000 C   0  0  0  0  0  0  0  0  0  0  0  0
    8.7512   -2.0732   -0.0000 C   0  0  0  0  0  0  0  0  0  0  0  0
    7.4954    4.5251   -0.0000 C   0  0  0  0  0  0  0  0  0  0  0  0
   10.0071    3.0300   -0.0000 C   0  0  0  0  0  0  0  0  0  0  0  0
   10.0071   -1.3157   -0.0000 C   0  0  0  0  0  0  0  0  0  0  0  0
    8.7512    5.2627   -0.0000 C   0  0  0  0  0  0  0  0  0  0  0  0
    7.4754    6.0202   -0.0000 C   0  0  0  0  0  0  0  0  0  0  0  0
   10.0071    4.5052   -0.0000 C   0  0  0  0  0  0  0  0  0  0  0  0
    8.7512    6.7578   -0.0000 O   0  0  0  0  0  0  0  0  0  0  0  0
  1  2  2  0  0  0  0
  2  3  1  0  0  0  0
  2  4  1  0  0  0  0
  3  5  2  0  0  0  0
  4  6  1  0  0  0  0
  5  7  1  0  0  0  0
  5  8  1  0  0  0  0
  7  9  2  0  0  0  0
  8 10  1  0  0  0  0
  8 11  1  0  0  0  0
  9 12  1  0  0  0  0
  9 13  1  0  0  0  0
 10 14  1  0  0  0  0
 12 15  2  0  0  0  0
 12 16  1  0  0  0  0
 13 17  1  0  0  0  0
 14 18  1  0  0  0  0
 15 19  1  0  0  0  0
 16 20  2  0  0  0  0
 17 21  1  0  0  0  0
 17 22  1  0  0  0  0
 19 23  2  0  0  0  0
 21 24  1  0  0  0  0
 21 25  1  0  0  0  0
 22 26  1  0  0  0  0
 24 27  2  0  0  0  0
  6  8  1  0  0  0  0
 10 13  1  0  0  0  0
 18 21  1  0  0  0  0
 20 23  1  0  0  0  0
 24 26  1  0  0  0  0
M  END
>  <MolRegNo>
5396

>  <m>
=

>  <Value>
1424

>  <Unit>
nM

>  <Type>
Ki

>  <pValue>
5.85

>  <Ligand Efficiency>
0.3

>  <Binding Efficiency>
16.22

>  <Surface Efficiency>
17.13

>  <Assay Index>
50932

>  <Assay Category>


>  <Assay Organism>
Homo sapiens

>  <Target ID>
65

>  <Target Name>
Cytochrome P450 19A1

>  <Target Organism>
Homo sapiens

>  <Target Description>
Target is a single protein chain

>  <Sequence Accession>
P11511

>  <Reference>
J Med Chem 33 (1), 101-105 (1990)

>  <Pubmed ID>
2296006

>  <DOI>
10.1021/jm00163a017

$$$$
5374
Actelion Java MolfileCreator 1.0

 32 36  0  0  0  0  0  0  0  0999 V2000
    0.0000   -0.0000   -0.0000 O   0  0  0  0  0  0  0  0  0  0  0  0
   -1.2487   -0.7928   -0.0000 N   0  0  0  0  0  0  0  0  0  0  0  0
   -1.1694   -2.2397   -0.0000 O   0  0  0  0  0  0  0  0  0  0  0  0
   -2.5766   -0.1189   -0.0000 C   0  0  0  0  0  0  0  0  0  0  0  0
   -3.8054   -0.9117   -0.0000 C   0  0  0  0  0  0  0  0  0  0  0  0
   -2.6757    1.3676   -0.0000 C   0  0  0  0  0  0  0  0  0  0  0  0
   -5.1334   -0.2378   -0.0000 C   0  0  0  0  0  0  0  0  0  0  0  0
   -3.9838    2.0216   -0.0000 C   0  0  0  0  0  0  0  0  0  0  0  0
   -5.2325    1.2487   -0.0000 C   0  0  0  0  0  0  0  0  0  0  0  0
   -6.5010    2.0018   -0.0000 C   0  0  0  0  0  0  0  0  0  0  0  0
   -6.5010    3.4883   -0.0000 C   0  0  0  0  0  0  0  0  0  0  0  0
   -7.7694    4.2415   -0.0000 C   0  0  0  0  0  0  0  0  0  0  0  0
   -9.0577    3.5478   -0.0000 C   0  0  0  0  0  0  0  0  0  0  0  0
   -7.8091    5.7082   -0.0000 C   0  0  0  0  0  0  0  0  0  0  0  0
  -10.3262    4.3009   -0.0000 C   0  0  0  0  0  0  0  0  0  0  0  0
   -9.0776    6.4811   -0.0000 C   0  0  0  0  0  0  0  0  0  0  0  0
   -6.5802    6.4613   -0.0000 C   0  0  0  0  0  0  0  0  0  0  0  0
  -11.5947    3.6072   -0.0000 C   0  0  0  0  0  0  0  0  0  0  0  0
  -10.3262    5.7874   -0.0000 C   0  0  0  0  0  0  0  0  0  0  0  0
   -9.0974    7.9676   -0.0000 C   0  0  0  0  0  0  0  0  0  0  0  0
   -6.5604    7.9280   -0.0000 C   0  0  0  0  0  0  0  0  0  0  0  0
   -4.0829    6.4415   -0.0000 C   0  0  0  0  0  0  0  0  0  0  0  0
  -12.8632    4.3406   -0.0000 C   0  0  0  0  0  0  0  0  0  0  0  0
  -11.5947    6.5406   -0.0000 C   0  0  0  0  0  0  0  0  0  0  0  0
  -10.3659    7.2739   -0.0000 C   0  0  0  0  0  0  0  0  0  0  0  0
   -7.8289    8.7010   -0.0000 C   0  0  0  0  0  0  0  0  0  0  0  0
   -5.3118    8.6613   -0.0000 C   0  0  0  0  0  0  0  0  0  0  0  0
   -6.6001    9.4145   -0.0000 C   0  0  0  0  0  0  0  0  0  0  0  0
   -4.0829    7.9082   -0.0000 C   0  0  0  0  0  0  0  0  0  0  0  0
  -14.1515    3.6271   -0.0000 O   0  0  0  0  0  0  0  0  0  0  0  0
  -12.8830    5.8271   -0.0000 C   0  0  0  0  0  0  0  0  0  0  0  0
   -5.3118   10.1478   -0.0000 O   0  0  0  0  0  0  0  0  0  0  0  0
  1  2  2  0  0  0  0
  2  3  1  0  0  0  0
  2  4  1  0  0  0  0
  4  5  2  0  0  0  0
  4  6  1  0  0  0  0
  5  7  1  0  0  0  0
  6  8  2  0  0  0  0
  7  9  2  0  0  0  0
  9 10  1  0  0  0  0
 10 11  1  0  0  0  0
 11 12  1  0  0  0  0
 12 13  2  0  0  0  0
 12 14  1  0  0  0  0
 13 15  1  0  0  0  0
 14 16  1  0  0  0  0
 14 17  1  0  0  0  0
 15 18  2  0  0  0  0
 15 19  1  0  0  0  0
 16 20  1  0  0  0  0
 17 21  1  0  0  0  0
 17 22  1  0  0  0  0
 18 23  1  0  0  0  0
 19 24  1  0  0  0  0
 19 25  1  0  0  0  0
 20 26  1  0  0  0  0
 21 27  1  0  0  0  0
 21 28  1  0  0  0  0
 22 29  1  0  0  0  0
 23 30  2  0  0  0  0
 23 31  1  0  0  0  0
 27 32  2  0  0  0  0
  8  9  1  0  0  0  0
 16 19  1  0  0  0  0
 21 26  1  0  0  0  0
 24 31  1  0  0  0  0
 27 29  1  0  0  0  0
M  CHG  2   2   1   3  -1
M  END
>  <MolRegNo>
5374

>  <m>
=

>  <Value>
95

>  <Unit>
nM

>  <Type>
Ki

>  <pValue>
7.02

>  <Ligand Efficiency>
0.3

>  <Binding Efficiency>
16.2

>  <Surface Efficiency>
9.09

>  <Assay Index>
50932

>  <Assay Category>


>  <Assay Organism>
Homo sapiens

>  <Target ID>
65

>  <Target Name>
Cytochrome P450 19A1

>  <Target Organism>
Homo sapiens

>  <Target Description>
Target is a single protein chain

>  <Sequence Accession>
P11511

>  <Reference>
J Med Chem 33 (1), 101-105 (1990)

>  <Pubmed ID>
2296006

>  <DOI>
10.1021/jm00163a017

$$$$
5437
Actelion Java MolfileCreator 1.0

 31 35  0  0  0  0  0  0  0  0999 V2000
    0.0000   -0.0000   -0.0000 O   0  0  0  0  0  0  0  0  0  0  0  0
   -1.2835    0.7504   -0.0000 N   0  0  0  0  0  0  0  0  0  0  0  0
   -2.5670    0.0395   -0.0000 O   0  0  0  0  0  0  0  0  0  0  0  0
   -1.3032    2.2313   -0.0000 C   0  0  0  0  0  0  0  0  0  0  0  0
   -0.0592    2.9817   -0.0000 C   0  0  0  0  0  0  0  0  0  0  0  0
   -2.5867    2.9817   -0.0000 C   0  0  0  0  0  0  0  0  0  0  0  0
   -0.0790    4.4429   -0.0000 C   0  0  0  0  0  0  0  0  0  0  0  0
   -2.6065    4.4626   -0.0000 C   0  0  0  0  0  0  0  0  0  0  0  0
   -1.3427    5.1932   -0.0000 C   0  0  0  0  0  0  0  0  0  0  0  0
   -1.3625    6.6742   -0.0000 C   0  0  0  0  0  0  0  0  0  0  0  0
   -2.6460    7.4246   -0.0000 C   0  0  0  0  0  0  0  0  0  0  0  0
   -3.9295    6.7334   -0.0000 C   0  0  0  0  0  0  0  0  0  0  0  0
   -2.6657    8.9055   -0.0000 C   0  0  0  0  0  0  0  0  0  0  0  0
   -5.2130    7.5035   -0.0000 C   0  0  0  0  0  0  0  0  0  0  0  0
   -3.9492    9.6559   -0.0000 C   0  0  0  0  0  0  0  0  0  0  0  0
   -1.4217    9.6361   -0.0000 C   0  0  0  0  0  0  0  0  0  0  0  0
   -6.4965    6.7927   -0.0000 C   0  0  0  0  0  0  0  0  0  0  0  0
   -5.2327    8.9648   -0.0000 C   0  0  0  0  0  0  0  0  0  0  0  0
   -3.9492   11.1368   -0.0000 C   0  0  0  0  0  0  0  0  0  0  0  0
   -1.4217   11.0973   -0.0000 C   0  0  0  0  0  0  0  0  0  0  0  0
    1.0663    9.6164   -0.0000 C   0  0  0  0  0  0  0  0  0  0  0  0
   -7.7602    7.5430   -0.0000 C   0  0  0  0  0  0  0  0  0  0  0  0
   -6.5162    9.7349   -0.0000 C   0  0  0  0  0  0  0  0  0  0  0  0
   -5.2525   10.4457   -0.0000 C   0  0  0  0  0  0  0  0  0  0  0  0
   -2.6855   11.8674   -0.0000 C   0  0  0  0  0  0  0  0  0  0  0  0
   -0.1777   11.8280   -0.0000 C   0  0  0  0  0  0  0  0  0  0  0  0
   -1.4415   12.5783   -0.0000 C   0  0  0  0  0  0  0  0  0  0  0  0
    1.0663   11.0776   -0.0000 C   0  0  0  0  0  0  0  0  0  0  0  0
   -9.0437    6.8124   -0.0000 O   0  0  0  0  0  0  0  0  0  0  0  0
   -7.7800    9.0043   -0.0000 C   0  0  0  0  0  0  0  0  0  0  0  0
   -0.1777   13.3089   -0.0000 O   0  0  0  0  0  0  0  0  0  0  0  0
  1  2  2  0  0  0  0
  2  3  1  0  0  0  0
  2  4  1  0  0  0  0
  4  5  2  0  0  0  0
  4  6  1  0  0  0  0
  5  7  1  0  0  0  0
  6  8  2  0  0  0  0
  7  9  2  0  0  0  0
  9 10  1  0  0  0  0
 10 11  1  0  0  0  0
 11 12  2  0  0  0  0
 11 13  1  0  0  0  0
 12 14  1  0  0  0  0
 13 15  1  0  0  0  0
 13 16  1  0  0  0  0
 14 17  2  0  0  0  0
 14 18  1  0  0  0  0
 15 19  1  0  0  0  0
 16 20  1  0  0  0  0
 16 21  1  0  0  0  0
 17 22  1  0  0  0  0
 18 23  1  0  0  0  0
 18 24  1  0  0  0  0
 19 25  1  0  0  0  0
 20 26  1  0  0  0  0
 20 27  1  0  0  0  0
 21 28  1  0  0  0  0
 22 29  2  0  0  0  0
 22 30  1  0  0  0  0
 26 31  2  0  0  0  0
  8  9  1  0  0  0  0
 15 18  1  0  0  0  0
 20 25  1  0  0  0  0
 23 30  1  0  0  0  0
 26 28  1  0  0  0  0
M  CHG  2   2   1   3  -1
M  END
>  <MolRegNo>
5437

>  <m>
=

>  <Value>
94

>  <Unit>
nM

>  <Type>
Ki

>  <pValue>
7.03

>  <Ligand Efficiency>
0.31

>  <Binding Efficiency>
16.75

>  <Surface Efficiency>
9.09

>  <Assay Index>
50932

>  <Assay Category>


>  <Assay Organism>
Homo sapiens

>  <Target ID>
65

>  <Target Name>
Cytochrome P450 19A1

>  <Target Organism>
Homo sapiens

>  <Target Description>
Target is a single protein chain

>  <Sequence Accession>
P11511

>  <Reference>
J Med Chem 33 (1), 101-105 (1990)

>  <Pubmed ID>
2296006

>  <DOI>
10.1021/jm00163a017

$$$$
264475
Actelion Java MolfileCreator 1.0

 22 24  0  0  0  0  0  0  0  0999 V2000
    0.0000   -0.0000   -0.0000 O   0  0  0  0  0  0  0  0  0  0  0  0
    1.2838    0.7608   -0.0000 C   0  0  0  0  0  0  0  0  0  0  0  0
    2.5677    0.0238   -0.0000 C   0  0  0  0  0  0  0  0  0  0  0  0
    1.2719    2.2824   -0.0000 C   0  0  0  0  0  0  0  0  0  0  0  0
    3.8515    0.7846   -0.0000 C   0  0  0  0  0  0  0  0  0  0  0  0
    2.5558    3.0432   -0.0000 C   0  0  0  0  0  0  0  0  0  0  0  0
    3.8515    2.3061   -0.0000 C   0  0  0  0  0  0  0  0  0  0  0  0
    5.1353    0.0475   -0.0000 C   0  0  0  0  0  0  0  0  0  0  0  0
    5.1353    3.0669   -0.0000 C   0  0  0  0  0  0  0  0  0  0  0  0
    3.8277    3.8158   -0.0000 C   0  0  0  0  0  0  0  0  0  0  0  0
    6.4310    0.8083   -0.0000 C   0  0  0  0  0  0  0  0  0  0  0  0
    6.4191    2.3180   -0.0000 C   0  0  0  0  0  0  0  0  0  0  0  0
    5.1234    4.5885   -0.0000 C   0  0  0  0  0  0  0  0  0  0  0  0
    7.7030    3.0788   -0.0000 C   0  0  0  0  0  0  0  0  0  0  0  0
    6.4310    5.3493   -0.0000 C   0  0  0  0  0  0  0  0  0  0  0  0
    7.7149    4.5885   -0.0000 C   0  0  0  0  0  0  0  0  0  0  0  0
    9.1176    2.6152   -0.0000 C   0  0  0  0  0  0  0  0  0  0  0  0
    9.1532    5.0521   -0.0000 C   0  0  0  0  0  0  0  0  0  0  0  0
    7.7030    6.1101   -0.0000 C   0  0  0  0  0  0  0  0  0  0  0  0
    9.4742    6.5261   -0.0000 O   0  0  0  0  0  0  0  0  0  0  0  0
   10.2350    4.0417   -0.0000 O   0  0  0  0  0  0  0  0  0  0  0  0
   11.6496    4.5053   -0.0000 C   0  0  0  0  0  0  0  0  0  0  0  0
  1  2  2  0  0  0  0
  2  3  1  0  0  0  0
  2  4  1  0  0  0  0
  3  5  2  0  0  0  0
  4  6  2  0  0  0  0
  5  7  1  0  0  0  0
  5  8  1  0  0  0  0
  7  9  1  0  0  0  0
  7 10  1  0  0  0  0
  8 11  1  0  0  0  0
  9 12  1  0  0  0  0
  9 13  1  0  0  0  0
 12 14  1  0  0  0  0
 13 15  1  0  0  0  0
 14 16  1  0  0  0  0
 14 17  1  0  0  0  0
 16 18  1  0  0  0  0
 16 19  1  0  0  0  0
 18 20  2  0  0  0  0
 18 21  1  0  0  0  0
 21 22  1  0  0  0  0
  6  7  1  0  0  0  0
 11 12  1  0  0  0  0
 15 16  1  0  0  0  0
M  END
>  <MolRegNo>
264475

>  <m>
=

>  <Value>
103000

>  <Unit>
nM

>  <Type>
Ki

>  <pValue>
0

>  <Ligand Efficiency>
0

>  <Binding Efficiency>
0

>  <Surface Efficiency>
0

>  <Assay Index>
50925

>  <Assay Category>


>  <Assay Organism>
Homo sapiens

>  <Target ID>
65

>  <Target Name>
Cytochrome P450 19A1

>  <Target Organism>
Homo sapiens

>  <Target Description>
Target is a single protein chain

>  <Sequence Accession>
P11511

>  <Reference>
J Med Chem 32 (3), 651-658 (1989)

>  <Pubmed ID>
2918514

>  <DOI>
10.1021/jm00123a026

$$$$
264588
Actelion Java MolfileCreator 1.0

 19 21  0  0  0  0  0  0  0  0999 V2000
    0.0000   -0.0000   -0.0000 O   0  0  0  0  0  0  0  0  0  0  0  0
    1.2821    0.7598   -0.0000 C   0  0  0  0  0  0  0  0  0  0  0  0
    2.5642    0.0237   -0.0000 C   0  0  0  0  0  0  0  0  0  0  0  0
    1.2702    2.2793   -0.0000 C   0  0  0  0  0  0  0  0  0  0  0  0
    3.8463    0.7835   -0.0000 C   0  0  0  0  0  0  0  0  0  0  0  0
    2.5523    3.0390   -0.0000 C   0  0  0  0  0  0  0  0  0  0  0  0
    3.8463    2.3030   -0.0000 C   0  0  0  0  0  0  0  0  0  0  0  0
    5.1284    0.0475   -0.0000 C   0  0  0  0  0  0  0  0  0  0  0  0
    5.1284    3.0628   -0.0000 C   0  0  0  0  0  0  0  0  0  0  0  0
    3.8226    3.8107   -0.0000 C   0  0  0  0  0  0  0  0  0  0  0  0
    6.4224    0.8072   -0.0000 C   0  0  0  0  0  0  0  0  0  0  0  0
    6.4105    2.3149   -0.0000 C   0  0  0  0  0  0  0  0  0  0  0  0
    5.1165    4.5823   -0.0000 C   0  0  0  0  0  0  0  0  0  0  0  0
    7.6926    3.0747   -0.0000 C   0  0  0  0  0  0  0  0  0  0  0  0
    6.4224    5.3421   -0.0000 C   0  0  0  0  0  0  0  0  0  0  0  0
    7.7045    4.5823   -0.0000 C   0  0  0  0  0  0  0  0  0  0  0  0
    9.1409    5.0453   -0.0000 C   0  0  0  0  0  0  0  0  0  0  0  0
    7.6926    6.1018   -0.0000 C   0  0  0  0  0  0  0  0  0  0  0  0
    9.4614    6.5173   -0.0000 O   0  0  0  0  0  0  0  0  0  0  0  0
  1  2  2  0  0  0  0
  2  3  1  0  0  0  0
  2  4  1  0  0  0  0
  3  5  2  0  0  0  0
  4  6  2  0  0  0  0
  5  7  1  0  0  0  0
  5  8  1  0  0  0  0
  7  9  1  0  0  0  0
  7 10  1  0  0  0  0
  8 11  1  0  0  0  0
  9 12  1  0  0  0  0
  9 13  1  0  0  0  0
 12 14  1  0  0  0  0
 13 15  1  0  0  0  0
 14 16  1  0  0  0  0
 16 17  1  0  0  0  0
 16 18  1  0  0  0  0
 17 19  2  0  0  0  0
  6  7  1  0  0  0  0
 11 12  1  0  0  0  0
 15 16  1  0  0  0  0
M  END
>  <MolRegNo>
264588

>  <m>
=

>  <Value>
3980

>  <Unit>
nM

>  <Type>
Ki

>  <pValue>
5.4

>  <Ligand Efficiency>
0.39

>  <Binding Efficiency>
20.9

>  <Surface Efficiency>
15.82

>  <Assay Index>
50938

>  <Assay Category>


>  <Assay Organism>
Homo sapiens

>  <Target ID>
65

>  <Target Name>
Cytochrome P450 19A1

>  <Target Organism>
Homo sapiens

>  <Target Description>
Target is a single protein chain

>  <Sequence Accession>
P11511

>  <Reference>
J Med Chem 32 (3), 651-658 (1989)

>  <Pubmed ID>
2918514

>  <DOI>
10.1021/jm00123a026

$$$$
34933
Actelion Java MolfileCreator 1.0

 21 24  0  0  1  0  0  0  0  0999 V2000
    0.0000   -0.0000   -0.0000 O   0  0  0  0  0  0  0  0  0  0  0  0
    1.2976    0.7976   -0.0000 C   0  0  0  0  0  0  0  0  0  0  0  0
    2.5834    0.0595   -0.0000 C   0  0  0  0  0  0  0  0  0  0  0  0
    1.2857    2.3215   -0.0000 C   0  0  0  0  0  0  0  0  0  0  0  0
    3.8691    0.8214   -0.0000 C   0  0  0  0  0  0  0  0  0  0  0  0
    2.5715    3.0834   -0.0000 C   0  0  0  0  0  0  0  0  0  0  0  0
    3.8572    2.3453   -0.0000 C   0  0  0  0  0  0  0  0  0  0  0  0
    5.1430    0.0833   -0.0000 C   0  0  0  0  0  0  0  0  0  0  0  0
    5.1311    3.1072   -0.0000 C   0  0  0  0  0  0  0  0  0  0  0  0
    3.8453    3.8691   -0.0000 C   0  0  0  0  0  0  0  0  0  0  0  0
    6.4287    0.8453   -0.0000 C   0  0  0  0  0  0  0  0  0  0  0  0
    6.4168    2.3691   -0.0000 C   0  0  0  0  0  0  0  0  0  0  0  0
    5.1192    4.6192   -0.0000 C   0  0  0  0  0  0  0  0  0  0  0  0
    7.6906    3.1310   -0.0000 C   0  0  0  0  0  0  0  0  0  0  0  0
    6.4049    5.3811   -0.0000 C   0  0  0  0  0  0  0  0  0  0  0  0
    7.6787    4.6430   -0.0000 C   0  0  0  0  0  0  0  0  0  0  0  0
    9.1073    2.6786   -0.0000 C   0  0  0  0  0  0  0  0  0  0  0  0
    9.0954    5.1311   -0.0000 C   0  0  0  0  0  0  0  0  0  0  0  0
    8.0002    6.1311   -0.0000 C   0  0  0  0  0  0  0  0  0  0  0  0
    9.9526    3.9168   -0.0000 C   0  0  0  0  0  0  0  0  0  0  0  0
    9.5597    6.5835   -0.0000 O   0  0  0  0  0  0  0  0  0  0  0  0
  1  2  2  0  0  0  0
  2  3  1  0  0  0  0
  2  4  1  0  0  0  0
  5  3  1  1  0  0  0
  4  6  1  0  0  0  0
  5  7  1  0  0  0  0
  5  8  1  0  0  0  0
  7  9  1  0  0  0  0
  7 10  1  1  0  0  0
  8 11  1  0  0  0  0
  9 12  1  0  0  0  0
  9 13  1  1  0  0  0
 12 14  1  0  0  0  0
 13 15  1  0  0  0  0
 14 16  1  0  0  0  0
 14 17  1  1  0  0  0
 16 18  1  0  0  0  0
 16 19  1  1  0  0  0
 17 20  1  0  0  0  0
 18 21  1  1  0  0  0
  6  7  1  0  0  0  0
 12 11  1  6  0  0  0
 15 16  1  0  0  0  0
 18 20  1  0  0  0  0
M  END
>  <MolRegNo>
34933

>  <m>
=

>  <Value>
1550

>  <Unit>
nM

>  <Type>
Ki

>  <pValue>
5.81

>  <Ligand Efficiency>
0.38

>  <Binding Efficiency>
20

>  <Surface Efficiency>
15.58

>  <Assay Index>
50939

>  <Assay Category>


>  <Assay Organism>
Homo sapiens

>  <Target ID>
65

>  <Target Name>
Cytochrome P450 19A1

>  <Target Organism>
Homo sapiens

>  <Target Description>
Target is a single protein chain

>  <Sequence Accession>
P11511

>  <Reference>
J Med Chem 32 (3), 651-658 (1989)

>  <Pubmed ID>
2918514

>  <DOI>
10.1021/jm00123a026

$$$$
264476
Actelion Java MolfileCreator 1.0

 21 23  0  0  0  0  0  0  0  0999 V2000
    0.0000   -0.0000   -0.0000 O   0  0  0  0  0  0  0  0  0  0  0  0
    1.2833    0.7605   -0.0000 C   0  0  0  0  0  0  0  0  0  0  0  0
    2.5667    0.0238   -0.0000 C   0  0  0  0  0  0  0  0  0  0  0  0
    1.2714    2.2815   -0.0000 C   0  0  0  0  0  0  0  0  0  0  0  0
    3.8500    0.7843   -0.0000 C   0  0  0  0  0  0  0  0  0  0  0  0
    2.5548    3.0420   -0.0000 C   0  0  0  0  0  0  0  0  0  0  0  0
    3.8500    2.3052   -0.0000 C   0  0  0  0  0  0  0  0  0  0  0  0
    5.1333    0.0475   -0.0000 C   0  0  0  0  0  0  0  0  0  0  0  0
    5.1333    3.0657   -0.0000 C   0  0  0  0  0  0  0  0  0  0  0  0
    3.8262    3.8143   -0.0000 C   0  0  0  0  0  0  0  0  0  0  0  0
    6.4285    0.8080   -0.0000 C   0  0  0  0  0  0  0  0  0  0  0  0
    6.4167    2.3171   -0.0000 C   0  0  0  0  0  0  0  0  0  0  0  0
    5.1214    4.5867   -0.0000 C   0  0  0  0  0  0  0  0  0  0  0  0
    7.7000    3.0776   -0.0000 C   0  0  0  0  0  0  0  0  0  0  0  0
    6.4285    5.3472   -0.0000 C   0  0  0  0  0  0  0  0  0  0  0  0
    7.7119    4.5867   -0.0000 C   0  0  0  0  0  0  0  0  0  0  0  0
    9.1497    5.0501   -0.0000 C   0  0  0  0  0  0  0  0  0  0  0  0
    7.7000    6.1077   -0.0000 C   0  0  0  0  0  0  0  0  0  0  0  0
    9.4705    6.5236   -0.0000 O   0  0  0  0  0  0  0  0  0  0  0  0
   10.2310    4.0401   -0.0000 O   0  0  0  0  0  0  0  0  0  0  0  0
    9.8864    2.5904   -0.0000 C   0  0  0  0  0  0  0  0  0  0  0  0
  1  2  2  0  0  0  0
  2  3  1  0  0  0  0
  2  4  1  0  0  0  0
  3  5  2  0  0  0  0
  4  6  2  0  0  0  0
  5  7  1  0  0  0  0
  5  8  1  0  0  0  0
  7  9  1  0  0  0  0
  7 10  1  0  0  0  0
  8 11  1  0  0  0  0
  9 12  1  0  0  0  0
  9 13  1  0  0  0  0
 12 14  1  0  0  0  0
 13 15  1  0  0  0  0
 14 16  1  0  0  0  0
 16 17  1  0  0  0  0
 16 18  1  0  0  0  0
 17 19  2  0  0  0  0
 17 20  1  0  0  0  0
 20 21  1  0  0  0  0
  6  7  1  0  0  0  0
 11 12  1  0  0  0  0
 15 16  1  0  0  0  0
M  END
>  <MolRegNo>
264476

>  <m>
=

>  <Value>
130000

>  <Unit>
nM

>  <Type>
Ki

>  <pValue>
0

>  <Ligand Efficiency>
0

>  <Binding Efficiency>
0

>  <Surface Efficiency>
0

>  <Assay Index>
50803

>  <Assay Category>


>  <Assay Organism>
Homo sapiens

>  <Target ID>
65

>  <Target Name>
Cytochrome P450 19A1

>  <Target Organism>
Homo sapiens

>  <Target Description>
Target is a single protein chain

>  <Sequence Accession>
P11511

>  <Reference>
J Med Chem 32 (3), 651-658 (1989)

>  <Pubmed ID>
2918514

>  <DOI>
10.1021/jm00123a026

$$$$
264589
Actelion Java MolfileCreator 1.0

 20 23  0  0  0  0  0  0  0  0999 V2000
    0.0000   -0.0000   -0.0000 O   0  0  0  0  0  0  0  0  0  0  0  0
    1.2830    0.7603   -0.0000 C   0  0  0  0  0  0  0  0  0  0  0  0
    2.5661    0.0238   -0.0000 C   0  0  0  0  0  0  0  0  0  0  0  0
    1.2712    2.2809   -0.0000 C   0  0  0  0  0  0  0  0  0  0  0  0
    3.8491    0.7841   -0.0000 C   0  0  0  0  0  0  0  0  0  0  0  0
    2.5542    3.0413   -0.0000 C   0  0  0  0  0  0  0  0  0  0  0  0
    3.8491    2.3047   -0.0000 C   0  0  0  0  0  0  0  0  0  0  0  0
    5.1321    0.0475   -0.0000 C   0  0  0  0  0  0  0  0  0  0  0  0
    5.1321    3.0650   -0.0000 C   0  0  0  0  0  0  0  0  0  0  0  0
    3.8253    3.8135   -0.0000 C   0  0  0  0  0  0  0  0  0  0  0  0
    6.4270    0.8078   -0.0000 C   0  0  0  0  0  0  0  0  0  0  0  0
    6.4152    2.3166   -0.0000 C   0  0  0  0  0  0  0  0  0  0  0  0
    5.1202    4.5857   -0.0000 C   0  0  0  0  0  0  0  0  0  0  0  0
    7.6982    3.0769   -0.0000 C   0  0  0  0  0  0  0  0  0  0  0  0
    6.4270    5.3460   -0.0000 C   0  0  0  0  0  0  0  0  0  0  0  0
    7.7101    4.5857   -0.0000 C   0  0  0  0  0  0  0  0  0  0  0  0
    9.1119    2.6136   -0.0000 C   0  0  0  0  0  0  0  0  0  0  0  0
    9.1475    5.0490   -0.0000 C   0  0  0  0  0  0  0  0  0  0  0  0
    7.6982    6.1063   -0.0000 C   0  0  0  0  0  0  0  0  0  0  0  0
   10.0029    3.8253   -0.0000 C   0  0  0  0  0  0  0  0  0  0  0  0
  1  2  2  0  0  0  0
  2  3  1  0  0  0  0
  2  4  1  0  0  0  0
  3  5  2  0  0  0  0
  4  6  2  0  0  0  0
  5  7  1  0  0  0  0
  5  8  1  0  0  0  0
  7  9  1  0  0  0  0
  7 10  1  0  0  0  0
  8 11  1  0  0  0  0
  9 12  1  0  0  0  0
  9 13  1  0  0  0  0
 12 14  1  0  0  0  0
 13 15  1  0  0  0  0
 14 16  1  0  0  0  0
 14 17  1  0  0  0  0
 16 18  1  0  0  0  0
 16 19  1  0  0  0  0
 17 20  1  0  0  0  0
  6  7  1  0  0  0  0
 11 12  1  0  0  0  0
 15 16  1  0  0  0  0
 18 20  1  0  0  0  0
M  END
>  <MolRegNo>
264589

>  <m>
=

>  <Value>
1100

>  <Unit>
nM

>  <Type>
Ki

>  <pValue>
5.96

>  <Ligand Efficiency>
0.41

>  <Binding Efficiency>
22.03

>  <Surface Efficiency>
34.91

>  <Assay Index>
50939

>  <Assay Category>


>  <Assay Organism>
Homo sapiens

>  <Target ID>
65

>  <Target Name>
Cytochrome P450 19A1

>  <Target Organism>
Homo sapiens

>  <Target Description>
Target is a single protein chain

>  <Sequence Accession>
P11511

>  <Reference>
J Med Chem 32 (3), 651-658 (1989)

>  <Pubmed ID>
2918514

>  <DOI>
10.1021/jm00123a026

$$$$
264587
Actelion Java MolfileCreator 1.0

 22 24  0  0  0  0  0  0  0  0999 V2000
    0.0000   -0.0000   -0.0000 O   0  0  0  0  0  0  0  0  0  0  0  0
    1.2837    0.7607   -0.0000 C   0  0  0  0  0  0  0  0  0  0  0  0
    2.5675    0.0238   -0.0000 C   0  0  0  0  0  0  0  0  0  0  0  0
    1.2718    2.2822   -0.0000 C   0  0  0  0  0  0  0  0  0  0  0  0
    3.8512    0.7845   -0.0000 C   0  0  0  0  0  0  0  0  0  0  0  0
    2.5556    3.0429   -0.0000 C   0  0  0  0  0  0  0  0  0  0  0  0
    3.8512    2.3060   -0.0000 C   0  0  0  0  0  0  0  0  0  0  0  0
    5.1349    0.0475   -0.0000 C   0  0  0  0  0  0  0  0  0  0  0  0
    5.1349    3.0667   -0.0000 C   0  0  0  0  0  0  0  0  0  0  0  0
    3.8274    3.8155   -0.0000 C   0  0  0  0  0  0  0  0  0  0  0  0
    6.4305    0.8083   -0.0000 C   0  0  0  0  0  0  0  0  0  0  0  0
    6.4186    2.3178   -0.0000 C   0  0  0  0  0  0  0  0  0  0  0  0
    5.1230    4.5881   -0.0000 C   0  0  0  0  0  0  0  0  0  0  0  0
    7.7024    3.0786   -0.0000 C   0  0  0  0  0  0  0  0  0  0  0  0
    6.4305    5.3489   -0.0000 C   0  0  0  0  0  0  0  0  0  0  0  0
    7.7142    4.5881   -0.0000 C   0  0  0  0  0  0  0  0  0  0  0  0
    9.1525    5.0517   -0.0000 C   0  0  0  0  0  0  0  0  0  0  0  0
    7.7024    6.1096   -0.0000 C   0  0  0  0  0  0  0  0  0  0  0  0
   10.2341    4.0414   -0.0000 O   0  0  0  0  0  0  0  0  0  0  0  0
   11.6486    4.5049   -0.0000 C   0  0  0  0  0  0  0  0  0  0  0  0
   11.9814    5.9788   -0.0000 O   0  0  0  0  0  0  0  0  0  0  0  0
   12.7422    3.4946   -0.0000 C   0  0  0  0  0  0  0  0  0  0  0  0
  1  2  2  0  0  0  0
  2  3  1  0  0  0  0
  2  4  1  0  0  0  0
  3  5  2  0  0  0  0
  4  6  2  0  0  0  0
  5  7  1  0  0  0  0
  5  8  1  0  0  0  0
  7  9  1  0  0  0  0
  7 10  1  0  0  0  0
  8 11  1  0  0  0  0
  9 12  1  0  0  0  0
  9 13  1  0  0  0  0
 12 14  1  0  0  0  0
 13 15  1  0  0  0  0
 14 16  1  0  0  0  0
 16 17  1  0  0  0  0
 16 18  1  0  0  0  0
 17 19  1  0  0  0  0
 19 20  1  0  0  0  0
 20 21  2  0  0  0  0
 20 22  1  0  0  0  0
  6  7  1  0  0  0  0
 11 12  1  0  0  0  0
 15 16  1  0  0  0  0
M  END
>  <MolRegNo>
264587

>  <m>
=

>  <Value>
13000

>  <Unit>
nM

>  <Type>
Ki

>  <pValue>
4.89

>  <Ligand Efficiency>
0.3

>  <Binding Efficiency>
16.16

>  <Surface Efficiency>
11.27

>  <Assay Index>
50925

>  <Assay Category>


>  <Assay Organism>
Homo sapiens

>  <Target ID>
65

>  <Target Name>
Cytochrome P450 19A1

>  <Target Organism>
Homo sapiens

>  <Target Description>
Target is a single protein chain

>  <Sequence Accession>
P11511

>  <Reference>
J Med Chem 32 (3), 651-658 (1989)

>  <Pubmed ID>
2918514

>  <DOI>
10.1021/jm00123a026

$$$$
264543
Actelion Java MolfileCreator 1.0

 20 22  0  0  0  0  0  0  0  0999 V2000
    0.0000   -0.0000   -0.0000 O   0  0  0  0  0  0  0  0  0  0  0  0
    1.2829    0.7603   -0.0000 C   0  0  0  0  0  0  0  0  0  0  0  0
    2.5659    0.0238   -0.0000 C   0  0  0  0  0  0  0  0  0  0  0  0
    1.2711    2.2808   -0.0000 C   0  0  0  0  0  0  0  0  0  0  0  0
    3.8488    0.7840   -0.0000 C   0  0  0  0  0  0  0  0  0  0  0  0
    2.5540    3.0411   -0.0000 C   0  0  0  0  0  0  0  0  0  0  0  0
    3.8488    2.3045   -0.0000 C   0  0  0  0  0  0  0  0  0  0  0  0
    5.1318    0.0475   -0.0000 C   0  0  0  0  0  0  0  0  0  0  0  0
    5.1318    3.0648   -0.0000 C   0  0  0  0  0  0  0  0  0  0  0  0
    3.8251    3.8132   -0.0000 C   0  0  0  0  0  0  0  0  0  0  0  0
    6.4266    0.8078   -0.0000 C   0  0  0  0  0  0  0  0  0  0  0  0
    6.4147    2.3164   -0.0000 C   0  0  0  0  0  0  0  0  0  0  0  0
    5.1199    4.5853   -0.0000 C   0  0  0  0  0  0  0  0  0  0  0  0
    7.6977    3.0767   -0.0000 C   0  0  0  0  0  0  0  0  0  0  0  0
    6.4266    5.3456   -0.0000 C   0  0  0  0  0  0  0  0  0  0  0  0
    7.7095    4.5853   -0.0000 C   0  0  0  0  0  0  0  0  0  0  0  0
    9.1469    5.0486   -0.0000 C   0  0  0  0  0  0  0  0  0  0  0  0
    7.6977    6.1059   -0.0000 C   0  0  0  0  0  0  0  0  0  0  0  0
    9.4677    6.5216   -0.0000 O   0  0  0  0  0  0  0  0  0  0  0  0
   10.2279    4.0389   -0.0000 C   0  0  0  0  0  0  0  0  0  0  0  0
  1  2  2  0  0  0  0
  2  3  1  0  0  0  0
  2  4  1  0  0  0  0
  3  5  2  0  0  0  0
  4  6  2  0  0  0  0
  5  7  1  0  0  0  0
  5  8  1  0  0  0  0
  7  9  1  0  0  0  0
  7 10  1  0  0  0  0
  8 11  1  0  0  0  0
  9 12  1  0  0  0  0
  9 13  1  0  0  0  0
 12 14  1  0  0  0  0
 13 15  1  0  0  0  0
 14 16  1  0  0  0  0
 16 17  1  0  0  0  0
 16 18  1  0  0  0  0
 17 19  2  0  0  0  0
 17 20  1  0  0  0  0
  6  7  1  0  0  0  0
 11 12  1  0  0  0  0
 15 16  1  0  0  0  0
M  END
>  <MolRegNo>
264543

>  <m>
=

>  <Value>
45000

>  <Unit>
nM

>  <Type>
Ki

>  <pValue>
4.35

>  <Ligand Efficiency>
0.3

>  <Binding Efficiency>
15.96

>  <Surface Efficiency>
12.73

>  <Assay Index>
50925

>  <Assay Category>


>  <Assay Organism>
Homo sapiens

>  <Target ID>
65

>  <Target Name>
Cytochrome P450 19A1

>  <Target Organism>
Homo sapiens

>  <Target Description>
Target is a single protein chain

>  <Sequence Accession>
P11511

>  <Reference>
J Med Chem 32 (3), 651-658 (1989)

>  <Pubmed ID>
2918514

>  <DOI>
10.1021/jm00123a026

$$$$
264575
Actelion Java MolfileCreator 1.0

 19 21  0  0  0  0  0  0  0  0999 V2000
    0.0000   -0.0000   -0.0000 O   0  0  0  0  0  0  0  0  0  0  0  0
    1.2833    0.7604   -0.0000 C   0  0  0  0  0  0  0  0  0  0  0  0
    2.5665    0.0238   -0.0000 C   0  0  0  0  0  0  0  0  0  0  0  0
    1.2714    2.2813   -0.0000 C   0  0  0  0  0  0  0  0  0  0  0  0
    3.8498    0.7842   -0.0000 C   0  0  0  0  0  0  0  0  0  0  0  0
    2.5546    3.0418   -0.0000 C   0  0  0  0  0  0  0  0  0  0  0  0
    3.8498    2.3051   -0.0000 C   0  0  0  0  0  0  0  0  0  0  0  0
    5.1330    0.0475   -0.0000 C   0  0  0  0  0  0  0  0  0  0  0  0
    5.1330    3.0655   -0.0000 C   0  0  0  0  0  0  0  0  0  0  0  0
    3.8260    3.8141   -0.0000 C   0  0  0  0  0  0  0  0  0  0  0  0
    6.4281    0.8080   -0.0000 C   0  0  0  0  0  0  0  0  0  0  0  0
    6.4163    2.3170   -0.0000 C   0  0  0  0  0  0  0  0  0  0  0  0
    5.1211    4.5864   -0.0000 C   0  0  0  0  0  0  0  0  0  0  0  0
    7.6995    3.0774   -0.0000 C   0  0  0  0  0  0  0  0  0  0  0  0
    6.4281    5.3469   -0.0000 C   0  0  0  0  0  0  0  0  0  0  0  0
    7.7114    4.5864   -0.0000 C   0  0  0  0  0  0  0  0  0  0  0  0
    9.1491    5.0498   -0.0000 C   0  0  0  0  0  0  0  0  0  0  0  0
    7.6995    6.1073   -0.0000 C   0  0  0  0  0  0  0  0  0  0  0  0
   10.2304    4.0399   -0.0000 O   0  0  0  0  0  0  0  0  0  0  0  0
  1  2  2  0  0  0  0
  2  3  1  0  0  0  0
  2  4  1  0  0  0  0
  3  5  2  0  0  0  0
  4  6  2  0  0  0  0
  5  7  1  0  0  0  0
  5  8  1  0  0  0  0
  7  9  1  0  0  0  0
  7 10  1  0  0  0  0
  8 11  1  0  0  0  0
  9 12  1  0  0  0  0
  9 13  1  0  0  0  0
 12 14  1  0  0  0  0
 13 15  1  0  0  0  0
 14 16  1  0  0  0  0
 16 17  1  0  0  0  0
 16 18  1  0  0  0  0
 17 19  1  0  0  0  0
  6  7  1  0  0  0  0
 11 12  1  0  0  0  0
 15 16  1  0  0  0  0
M  END
>  <MolRegNo>
264575

>  <m>
=

>  <Value>
8560

>  <Unit>
nM

>  <Type>
Ki

>  <pValue>
5.07

>  <Ligand Efficiency>
0.36

>  <Binding Efficiency>
19.46

>  <Surface Efficiency>
13.59

>  <Assay Index>
50938

>  <Assay Category>


>  <Assay Organism>
Homo sapiens

>  <Target ID>
65

>  <Target Name>
Cytochrome P450 19A1

>  <Target Organism>
Homo sapiens

>  <Target Description>
Target is a single protein chain

>  <Sequence Accession>
P11511

>  <Reference>
J Med Chem 32 (3), 651-658 (1989)

>  <Pubmed ID>
2918514

>  <DOI>
10.1021/jm00123a026

$$$$
264657
Actelion Java MolfileCreator 1.0

 21 23  0  0  0  0  0  0  0  0999 V2000
    0.0000   -0.0000   -0.0000 O   0  0  0  0  0  0  0  0  0  0  0  0
    1.2834    0.7605   -0.0000 C   0  0  0  0  0  0  0  0  0  0  0  0
    2.5668    0.0238   -0.0000 C   0  0  0  0  0  0  0  0  0  0  0  0
    1.2715    2.2816   -0.0000 C   0  0  0  0  0  0  0  0  0  0  0  0
    3.8502    0.7843   -0.0000 C   0  0  0  0  0  0  0  0  0  0  0  0
    2.5549    3.0421   -0.0000 C   0  0  0  0  0  0  0  0  0  0  0  0
    3.8502    2.3054   -0.0000 C   0  0  0  0  0  0  0  0  0  0  0  0
    5.1336    0.0475   -0.0000 C   0  0  0  0  0  0  0  0  0  0  0  0
    5.1336    3.0659   -0.0000 C   0  0  0  0  0  0  0  0  0  0  0  0
    3.8265    3.8146   -0.0000 C   0  0  0  0  0  0  0  0  0  0  0  0
    6.4289    0.8081   -0.0000 C   0  0  0  0  0  0  0  0  0  0  0  0
    6.4170    2.3173   -0.0000 C   0  0  0  0  0  0  0  0  0  0  0  0
    5.1217    4.5870   -0.0000 C   0  0  0  0  0  0  0  0  0  0  0  0
    7.7004    3.0778   -0.0000 C   0  0  0  0  0  0  0  0  0  0  0  0
    6.4289    5.3475   -0.0000 C   0  0  0  0  0  0  0  0  0  0  0  0
    7.7123    4.5870   -0.0000 C   0  0  0  0  0  0  0  0  0  0  0  0
    9.1146    2.6143   -0.0000 C   0  0  0  0  0  0  0  0  0  0  0  0
    9.1502    5.0504   -0.0000 C   0  0  0  0  0  0  0  0  0  0  0  0
    7.7004    6.1081   -0.0000 C   0  0  0  0  0  0  0  0  0  0  0  0
    9.4711    6.5240   -0.0000 O   0  0  0  0  0  0  0  0  0  0  0  0
   10.2316    4.0404   -0.0000 O   0  0  0  0  0  0  0  0  0  0  0  0
  1  2  2  0  0  0  0
  2  3  1  0  0  0  0
  2  4  1  0  0  0  0
  3  5  2  0  0  0  0
  4  6  2  0  0  0  0
  5  7  1  0  0  0  0
  5  8  1  0  0  0  0
  7  9  1  0  0  0  0
  7 10  1  0  0  0  0
  8 11  1  0  0  0  0
  9 12  1  0  0  0  0
  9 13  1  0  0  0  0
 12 14  1  0  0  0  0
 13 15  1  0  0  0  0
 14 16  1  0  0  0  0
 14 17  1  0  0  0  0
 16 18  1  0  0  0  0
 16 19  1  0  0  0  0
 18 20  2  0  0  0  0
 18 21  1  0  0  0  0
  6  7  1  0  0  0  0
 11 12  1  0  0  0  0
 15 16  1  0  0  0  0
M  END
>  <MolRegNo>
264657

>  <m>
=

>  <Value>
1198000

>  <Unit>
nM

>  <Type>
Ki

>  <pValue>
0

>  <Ligand Efficiency>
0

>  <Binding Efficiency>
0

>  <Surface Efficiency>
0

>  <Assay Index>
50803

>  <Assay Category>


>  <Assay Organism>
Homo sapiens

>  <Target ID>
65

>  <Target Name>
Cytochrome P450 19A1

>  <Target Organism>
Homo sapiens

>  <Target Description>
Target is a single protein chain

>  <Sequence Accession>
P11511

>  <Reference>
J Med Chem 32 (3), 651-658 (1989)

>  <Pubmed ID>
2918514

>  <DOI>
10.1021/jm00123a026

$$$$
264628
Actelion Java MolfileCreator 1.0

 20 22  0  0  0  0  0  0  0  0999 V2000
    0.0000   -0.0000   -0.0000 O   0  0  0  0  0  0  0  0  0  0  0  0
    1.2829    0.7603   -0.0000 C   0  0  0  0  0  0  0  0  0  0  0  0
    2.5659    0.0238   -0.0000 C   0  0  0  0  0  0  0  0  0  0  0  0
    1.2711    2.2808   -0.0000 C   0  0  0  0  0  0  0  0  0  0  0  0
    3.8488    0.7840   -0.0000 C   0  0  0  0  0  0  0  0  0  0  0  0
    2.5540    3.0411   -0.0000 C   0  0  0  0  0  0  0  0  0  0  0  0
    3.8488    2.3045   -0.0000 C   0  0  0  0  0  0  0  0  0  0  0  0
    5.1318    0.0475   -0.0000 C   0  0  0  0  0  0  0  0  0  0  0  0
    5.1318    3.0648   -0.0000 C   0  0  0  0  0  0  0  0  0  0  0  0
    3.8251    3.8132   -0.0000 C   0  0  0  0  0  0  0  0  0  0  0  0
    6.4266    0.8078   -0.0000 C   0  0  0  0  0  0  0  0  0  0  0  0
    6.4147    2.3164   -0.0000 C   0  0  0  0  0  0  0  0  0  0  0  0
    5.1199    4.5853   -0.0000 C   0  0  0  0  0  0  0  0  0  0  0  0
    7.6977    3.0767   -0.0000 C   0  0  0  0  0  0  0  0  0  0  0  0
    6.4266    5.3456   -0.0000 C   0  0  0  0  0  0  0  0  0  0  0  0
    7.7095    4.5853   -0.0000 C   0  0  0  0  0  0  0  0  0  0  0  0
    9.1469    5.0486   -0.0000 C   0  0  0  0  0  0  0  0  0  0  0  0
    7.6977    6.1059   -0.0000 C   0  0  0  0  0  0  0  0  0  0  0  0
    9.4677    6.5216   -0.0000 O   0  0  0  0  0  0  0  0  0  0  0  0
   10.2279    4.0389   -0.0000 O   0  0  0  0  0  0  0  0  0  0  0  0
  1  2  2  0  0  0  0
  2  3  1  0  0  0  0
  2  4  1  0  0  0  0
  3  5  2  0  0  0  0
  4  6  2  0  0  0  0
  5  7  1  0  0  0  0
  5  8  1  0  0  0  0
  7  9  1  0  0  0  0
  7 10  1  0  0  0  0
  8 11  1  0  0  0  0
  9 12  1  0  0  0  0
  9 13  1  0  0  0  0
 12 14  1  0  0  0  0
 13 15  1  0  0  0  0
 14 16  1  0  0  0  0
 16 17  1  0  0  0  0
 16 18  1  0  0  0  0
 17 19  2  0  0  0  0
 17 20  1  0  0  0  0
  6  7  1  0  0  0  0
 11 12  1  0  0  0  0
 15 16  1  0  0  0  0
M  END
>  <MolRegNo>
264628

>  <m>
=

>  <Value>
893000

>  <Unit>
nM

>  <Type>
Ki

>  <pValue>
0

>  <Ligand Efficiency>
0

>  <Binding Efficiency>
0

>  <Surface Efficiency>
0

>  <Assay Index>
50925

>  <Assay Category>


>  <Assay Organism>
Homo sapiens

>  <Target ID>
65

>  <Target Name>
Cytochrome P450 19A1

>  <Target Organism>
Homo sapiens

>  <Target Description>
Target is a single protein chain

>  <Sequence Accession>
P11511

>  <Reference>
J Med Chem 32 (3), 651-658 (1989)

>  <Pubmed ID>
2918514

>  <DOI>
10.1021/jm00123a026

$$$$
264542
Actelion Java MolfileCreator 1.0

 21 23  0  0  0  0  0  0  0  0999 V2000
    0.0000   -0.0000   -0.0000 O   0  0  0  0  0  0  0  0  0  0  0  0
    1.2833    0.7605   -0.0000 C   0  0  0  0  0  0  0  0  0  0  0  0
    2.5667    0.0238   -0.0000 C   0  0  0  0  0  0  0  0  0  0  0  0
    1.2714    2.2815   -0.0000 C   0  0  0  0  0  0  0  0  0  0  0  0
    3.8500    0.7843   -0.0000 C   0  0  0  0  0  0  0  0  0  0  0  0
    2.5548    3.0420   -0.0000 C   0  0  0  0  0  0  0  0  0  0  0  0
    3.8500    2.3052   -0.0000 C   0  0  0  0  0  0  0  0  0  0  0  0
    5.1333    0.0475   -0.0000 C   0  0  0  0  0  0  0  0  0  0  0  0
    5.1333    3.0657   -0.0000 C   0  0  0  0  0  0  0  0  0  0  0  0
    3.8262    3.8143   -0.0000 C   0  0  0  0  0  0  0  0  0  0  0  0
    6.4285    0.8080   -0.0000 C   0  0  0  0  0  0  0  0  0  0  0  0
    6.4167    2.3171   -0.0000 C   0  0  0  0  0  0  0  0  0  0  0  0
    5.1214    4.5867   -0.0000 C   0  0  0  0  0  0  0  0  0  0  0  0
    7.7000    3.0776   -0.0000 C   0  0  0  0  0  0  0  0  0  0  0  0
    6.4285    5.3472   -0.0000 C   0  0  0  0  0  0  0  0  0  0  0  0
    7.7119    4.5867   -0.0000 C   0  0  0  0  0  0  0  0  0  0  0  0
    9.1497    5.0501   -0.0000 C   0  0  0  0  0  0  0  0  0  0  0  0
    7.7000    6.1077   -0.0000 C   0  0  0  0  0  0  0  0  0  0  0  0
    9.4705    6.5236   -0.0000 O   0  0  0  0  0  0  0  0  0  0  0  0
   10.2310    4.0401   -0.0000 C   0  0  0  0  0  0  0  0  0  0  0  0
    9.8864    2.5904   -0.0000 C   0  0  0  0  0  0  0  0  0  0  0  0
  1  2  2  0  0  0  0
  2  3  1  0  0  0  0
  2  4  1  0  0  0  0
  3  5  2  0  0  0  0
  4  6  2  0  0  0  0
  5  7  1  0  0  0  0
  5  8  1  0  0  0  0
  7  9  1  0  0  0  0
  7 10  1  0  0  0  0
  8 11  1  0  0  0  0
  9 12  1  0  0  0  0
  9 13  1  0  0  0  0
 12 14  1  0  0  0  0
 13 15  1  0  0  0  0
 14 16  1  0  0  0  0
 16 17  1  0  0  0  0
 16 18  1  0  0  0  0
 17 19  2  0  0  0  0
 17 20  1  0  0  0  0
 20 21  1  0  0  0  0
  6  7  1  0  0  0  0
 11 12  1  0  0  0  0
 15 16  1  0  0  0  0
M  END
>  <MolRegNo>
264542

>  <m>
=

>  <Value>
97000

>  <Unit>
nM

>  <Type>
Ki

>  <pValue>
4.01

>  <Ligand Efficiency>
0.26

>  <Binding Efficiency>
14.01

>  <Surface Efficiency>
11.76

>  <Assay Index>
50925

>  <Assay Category>


>  <Assay Organism>
Homo sapiens

>  <Target ID>
65

>  <Target Name>
Cytochrome P450 19A1

>  <Target Organism>
Homo sapiens

>  <Target Description>
Target is a single protein chain

>  <Sequence Accession>
P11511

>  <Reference>
J Med Chem 32 (3), 651-658 (1989)

>  <Pubmed ID>
2918514

>  <DOI>
10.1021/jm00123a026

$$$$
530450
Actelion Java MolfileCreator 1.0

 22 25  0  0  1  0  0  0  0  0999 V2000
    0.0000   -0.0000   -0.0000 O   0  0  0  0  0  0  0  0  0  0  0  0
    1.2893   -0.7334   -0.0000 C   0  0  0  0  0  0  0  0  0  0  0  0
    1.2775   -2.2237   -0.0000 C   0  0  0  0  0  0  0  0  0  0  0  0
    2.5786    0.0237   -0.0000 C   0  0  0  0  0  0  0  0  0  0  0  0
   -0.0355   -2.9689   -0.0000 C   0  0  0  0  0  0  0  0  0  0  0  0
    2.5667   -2.9689   -0.0000 C   0  0  0  0  0  0  0  0  0  0  0  0
    3.8679   -0.7097   -0.0000 N   0  0  0  0  0  0  0  0  0  0  0  0
    2.5667    1.5377   -0.0000 C   0  0  0  0  0  0  0  0  0  0  0  0
   -0.0473   -4.4593   -0.0000 C   0  0  0  0  0  0  0  0  0  0  0  0
   -1.3484   -2.2001   -0.0000 C   0  0  0  0  0  0  0  0  0  0  0  0
    2.5549   -4.4593   -0.0000 C   0  0  0  0  0  0  0  0  0  0  0  0
    4.5539    0.6151   -0.0000 C   0  0  0  0  0  0  0  0  0  0  0  0
    5.1571    0.0473   -0.0000 C   0  0  0  0  0  0  0  0  0  0  0  0
    3.8560    2.2947   -0.0000 C   0  0  0  0  0  0  0  0  0  0  0  0
    1.2420   -5.1926   -0.0000 N   0  0  0  0  0  0  0  0  0  0  0  0
   -1.3603   -5.1926   -0.0000 C   0  0  0  0  0  0  0  0  0  0  0  0
   -2.6614   -2.9452   -0.0000 C   0  0  0  0  0  0  0  0  0  0  0  0
    3.0872    1.0172   -0.0000 C   0  0  0  0  0  0  0  0  0  0  0  0
    5.1453    1.5613   -0.0000 C   0  0  0  0  0  0  0  0  0  0  0  0
   -2.6732   -4.4356   -0.0000 C   0  0  0  0  0  0  0  0  0  0  0  0
    3.0754    2.5313   -0.0000 C   0  0  0  0  0  0  0  0  0  0  0  0
    1.6086    2.9334   -0.0000 C   0  0  0  0  0  0  0  0  0  0  0  0
  2  1  1  6  0  0  0
  2  3  1  0  0  0  0
  2  4  1  0  0  0  0
  3  5  1  0  0  0  0
  3  6  2  0  0  0  0
  4  7  1  1  0  0  0
  4  8  1  0  0  0  0
  5  9  1  0  0  0  0
  5 10  2  0  0  0  0
  6 11  1  0  0  0  0
  7 12  1  0  0  0  0
  7 13  1  0  0  0  0
 14  8  1  6  0  0  0
  9 15  1  0  0  0  0
  9 16  2  0  0  0  0
 10 17  1  0  0  0  0
 12 18  1  0  0  0  0
 13 19  1  0  0  0  0
 16 20  1  0  0  0  0
 18 21  1  6  0  0  0
 21 22  2  0  0  0  0
 11 15  2  0  0  0  0
 14 18  1  0  0  0  0
 14 19  1  0  0  0  0
 17 20  2  0  0  0  0
M  END
>  <MolRegNo>
530450

>  <m>
=

>  <Value>
21000

>  <Unit>
nM

>  <Type>
Ki

>  <pValue>
4.68

>  <Ligand Efficiency>
0

>  <Binding Efficiency>
0

>  <Surface Efficiency>
0

>  <Assay Index>
235178

>  <Assay Category>


>  <Assay Organism>


>  <Target ID>
11365

>  <Target Name>
Cytochrome P450 2D6

>  <Target Organism>
Homo sapiens

>  <Target Description>
Target is a single protein chain

>  <Sequence Accession>
P10635

>  <Reference>
J Med Chem 47 (22), 5340-5346 (2004)

>  <Pubmed ID>
15481972

>  <DOI>
10.1021/jm049934e

$$$$
17853
Actelion Java MolfileCreator 1.0

 19 21  0  0  0  0  0  0  0  0999 V2000
    0.0000   -0.0000   -0.0000 O   0  0  0  0  0  0  0  0  0  0  0  0
   -0.0118   -1.4906   -0.0000 C   0  0  0  0  0  0  0  0  0  0  0  0
    1.2776   -2.2358   -0.0000 C   0  0  0  0  0  0  0  0  0  0  0  0
   -1.3249   -2.2358   -0.0000 C   0  0  0  0  0  0  0  0  0  0  0  0
    1.2658   -3.7264   -0.0000 C   0  0  0  0  0  0  0  0  0  0  0  0
    2.5671   -1.4669   -0.0000 C   0  0  0  0  0  0  0  0  0  0  0  0
   -1.3368   -3.7264   -0.0000 C   0  0  0  0  0  0  0  0  0  0  0  0
   -0.0473   -4.4717   -0.0000 O   0  0  0  0  0  0  0  0  0  0  0  0
    2.5552   -4.4717   -0.0000 C   0  0  0  0  0  0  0  0  0  0  0  0
    2.5552    0.0473   -0.0000 O   0  0  0  0  0  0  0  0  0  0  0  0
    3.8565   -2.2122   -0.0000 C   0  0  0  0  0  0  0  0  0  0  0  0
   -2.6499   -4.4717   -0.0000 C   0  0  0  0  0  0  0  0  0  0  0  0
    3.8447   -3.7027   -0.0000 C   0  0  0  0  0  0  0  0  0  0  0  0
   -2.6617   -5.9622   -0.0000 C   0  0  0  0  0  0  0  0  0  0  0  0
   -3.9630   -3.7027   -0.0000 C   0  0  0  0  0  0  0  0  0  0  0  0
    5.1342   -4.4480   -0.0000 O   0  0  0  0  0  0  0  0  0  0  0  0
   -3.9748   -6.7075   -0.0000 C   0  0  0  0  0  0  0  0  0  0  0  0
   -5.2761   -4.4480   -0.0000 C   0  0  0  0  0  0  0  0  0  0  0  0
   -5.2879   -5.9386   -0.0000 C   0  0  0  0  0  0  0  0  0  0  0  0
  1  2  2  0  0  0  0
  2  3  1  0  0  0  0
  2  4  1  0  0  0  0
  3  5  2  0  0  0  0
  3  6  1  0  0  0  0
  4  7  2  0  0  0  0
  5  8  1  0  0  0  0
  5  9  1  0  0  0  0
  6 10  1  0  0  0  0
  6 11  2  0  0  0  0
  7 12  1  0  0  0  0
  9 13  2  0  0  0  0
 12 14  2  0  0  0  0
 12 15  1  0  0  0  0
 13 16  1  0  0  0  0
 14 17  1  0  0  0  0
 15 18  2  0  0  0  0
 17 19  2  0  0  0  0
  7  8  1  0  0  0  0
 11 13  1  0  0  0  0
 18 19  1  0  0  0  0
M  END
>  <MolRegNo>
17853

>  <m>
=

>  <Value>
2600

>  <Unit>
nM

>  <Type>
Ki

>  <pValue>
5.58

>  <Ligand Efficiency>
0.4

>  <Binding Efficiency>
21.97

>  <Surface Efficiency>
7.9

>  <Assay Index>
235379

>  <Assay Category>


>  <Assay Organism>
Homo sapiens

>  <Target ID>
65

>  <Target Name>
Cytochrome P450 19A1

>  <Target Organism>
Homo sapiens

>  <Target Description>
Target is a single protein chain

>  <Sequence Accession>
P11511

>  <Reference>
J Med Chem 47 (16), 4032-4040 (2004)

>  <Pubmed ID>
15267241

>  <DOI>
10.1021/jm0306024

$$$$
2658
Actelion Java MolfileCreator 1.0

 20 22  0  0  0  0  0  0  0  0999 V2000
    0.0000   -0.0000   -0.0000 O   0  0  0  0  0  0  0  0  0  0  0  0
   -0.0118   -1.4912   -0.0000 C   0  0  0  0  0  0  0  0  0  0  0  0
    1.2782   -2.2249   -0.0000 C   0  0  0  0  0  0  0  0  0  0  0  0
   -1.3255   -2.2249   -0.0000 C   0  0  0  0  0  0  0  0  0  0  0  0
    1.2663   -3.7161   -0.0000 C   0  0  0  0  0  0  0  0  0  0  0  0
    2.5681   -1.4675   -0.0000 C   0  0  0  0  0  0  0  0  0  0  0  0
   -2.6391   -1.4675   -0.0000 C   0  0  0  0  0  0  0  0  0  0  0  0
   -1.3373   -3.7161   -0.0000 C   0  0  0  0  0  0  0  0  0  0  0  0
   -0.0473   -4.4499   -0.0000 O   0  0  0  0  0  0  0  0  0  0  0  0
    2.5563   -4.4499   -0.0000 C   0  0  0  0  0  0  0  0  0  0  0  0
    2.5563    0.0473   -0.0000 O   0  0  0  0  0  0  0  0  0  0  0  0
    3.8581   -2.2131   -0.0000 C   0  0  0  0  0  0  0  0  0  0  0  0
   -3.9528   -2.2013   -0.0000 C   0  0  0  0  0  0  0  0  0  0  0  0
   -2.6510    0.0473   -0.0000 C   0  0  0  0  0  0  0  0  0  0  0  0
    3.8463   -3.6924   -0.0000 C   0  0  0  0  0  0  0  0  0  0  0  0
   -5.2665   -1.4438   -0.0000 C   0  0  0  0  0  0  0  0  0  0  0  0
   -3.9646    0.8048   -0.0000 C   0  0  0  0  0  0  0  0  0  0  0  0
    5.1363   -4.4262   -0.0000 O   0  0  0  0  0  0  0  0  0  0  0  0
   -5.2783    0.0710   -0.0000 C   0  0  0  0  0  0  0  0  0  0  0  0
   -6.5919    0.8284   -0.0000 O   0  0  0  0  0  0  0  0  0  0  0  0
  1  2  2  0  0  0  0
  2  3  1  0  0  0  0
  2  4  1  0  0  0  0
  3  5  2  0  0  0  0
  3  6  1  0  0  0  0
  4  7  1  0  0  0  0
  4  8  2  0  0  0  0
  5  9  1  0  0  0  0
  5 10  1  0  0  0  0
  6 11  1  0  0  0  0
  6 12  2  0  0  0  0
  7 13  2  0  0  0  0
  7 14  1  0  0  0  0
 10 15  2  0  0  0  0
 13 16  1  0  0  0  0
 14 17  2  0  0  0  0
 15 18  1  0  0  0  0
 16 19  2  0  0  0  0
 19 20  1  0  0  0  0
  8  9  1  0  0  0  0
 12 15  1  0  0  0  0
 17 19  1  0  0  0  0
M  END
>  <MolRegNo>
2658

>  <m>
=

>  <Value>
123000

>  <Unit>
nM

>  <Type>
Ki

>  <pValue>
0

>  <Ligand Efficiency>
0

>  <Binding Efficiency>
0

>  <Surface Efficiency>
0

>  <Assay Index>
235379

>  <Assay Category>


>  <Assay Organism>
Homo sapiens

>  <Target ID>
65

>  <Target Name>
Cytochrome P450 19A1

>  <Target Organism>
Homo sapiens

>  <Target Description>
Target is a single protein chain

>  <Sequence Accession>
P11511

>  <Reference>
J Med Chem 47 (16), 4032-4040 (2004)

>  <Pubmed ID>
15267241

>  <DOI>
10.1021/jm0306024

$$$$
361910
Actelion Java MolfileCreator 1.0

 13 14  0  0  0  0  0  0  0  0999 V2000
    0.0000   -0.0000   -0.0000 N   0  0  0  0  0  0  0  0  0  0  0  0
    1.3150   -0.7600   -0.0000 C   0  0  0  0  0  0  0  0  0  0  0  0
   -0.0121    1.5442   -0.0000 C   0  0  0  0  0  0  0  0  0  0  0  0
    2.6300    0.0121   -0.0000 C   0  0  0  0  0  0  0  0  0  0  0  0
    1.3029    2.3163   -0.0000 C   0  0  0  0  0  0  0  0  0  0  0  0
    3.9449   -0.7480   -0.0000 C   0  0  0  0  0  0  0  0  0  0  0  0
    2.6179    1.5563   -0.0000 C   0  0  0  0  0  0  0  0  0  0  0  0
    4.0656   -2.2439   -0.0000 N   0  0  0  0  0  0  0  0  0  0  0  0
    5.3202   -0.1086   -0.0000 C   0  0  0  0  0  0  0  0  0  0  0  0
    5.5494   -2.5576   -0.0000 N   0  0  0  0  0  0  0  0  0  0  0  0
    6.3336   -1.2426   -0.0000 C   0  0  0  0  0  0  0  0  0  0  0  0
    7.8416   -1.0737   -0.0000 C   0  0  0  0  0  0  0  0  0  0  0  0
    8.5413   -2.0509   -0.0000 N   0  0  0  0  0  0  0  0  0  0  0  0
  1  2  2  0  0  0  0
  1  3  1  0  0  0  0
  2  4  1  0  0  0  0
  3  5  2  0  0  0  0
  4  6  1  0  0  0  0
  4  7  2  0  0  0  0
  6  8  2  0  0  0  0
  6  9  1  0  0  0  0
  8 10  1  0  0  0  0
  9 11  2  0  0  0  0
 11 12  1  0  0  0  0
 12 13  1  0  0  0  0
  5  7  1  0  0  0  0
 10 11  1  0  0  0  0
M  END
>  <MolRegNo>
361910

>  <m>
=

>  <Value>
29800

>  <Unit>
nM

>  <Type>
Ki

>  <pValue>
4.53

>  <Ligand Efficiency>
0

>  <Binding Efficiency>
0

>  <Surface Efficiency>
0

>  <Assay Index>
269558

>  <Assay Category>


>  <Assay Organism>
Homo sapiens

>  <Target ID>
11365

>  <Target Name>
Cytochrome P450 2D6

>  <Target Organism>
Homo sapiens

>  <Target Description>
Target is a single protein chain

>  <Sequence Accession>
P10635

>  <Reference>
J Med Chem 49 (24), 6987-7001 (2006)

>  <Pubmed ID>
17125252

>  <DOI>
10.1021/jm060519r

$$$$
361895
Actelion Java MolfileCreator 1.0

 11 12  0  0  0  0  0  0  0  0999 V2000
    0.0000   -0.0000   -0.0000 N   0  0  0  0  0  0  0  0  0  0  0  0
    1.2919    0.7586   -0.0000 C   0  0  0  0  0  0  0  0  0  0  0  0
   -1.3038    0.7586   -0.0000 C   0  0  0  0  0  0  0  0  0  0  0  0
    1.2801    2.2757   -0.0000 C   0  0  0  0  0  0  0  0  0  0  0  0
   -1.3156    2.2757   -0.0000 C   0  0  0  0  0  0  0  0  0  0  0  0
    2.5246    3.1053   -0.0000 C   0  0  0  0  0  0  0  0  0  0  0  0
   -0.0237    3.0342   -0.0000 C   0  0  0  0  0  0  0  0  0  0  0  0
    3.9113    2.5720   -0.0000 N   0  0  0  0  0  0  0  0  0  0  0  0
    2.5957    4.5987   -0.0000 C   0  0  0  0  0  0  0  0  0  0  0  0
    4.8358    3.7453   -0.0000 N   0  0  0  0  0  0  0  0  0  0  0  0
    4.0298    5.0017   -0.0000 C   0  0  0  0  0  0  0  0  0  0  0  0
  1  2  2  0  0  0  0
  1  3  1  0  0  0  0
  2  4  1  0  0  0  0
  3  5  2  0  0  0  0
  4  6  1  0  0  0  0
  4  7  2  0  0  0  0
  6  8  2  0  0  0  0
  6  9  1  0  0  0  0
  8 10  1  0  0  0  0
  9 11  2  0  0  0  0
  5  7  1  0  0  0  0
 10 11  1  0  0  0  0
M  END
>  <MolRegNo>
361895

>  <m>
=

>  <Value>
165000

>  <Unit>
nM

>  <Type>
Ki

>  <pValue>
0

>  <Ligand Efficiency>
0

>  <Binding Efficiency>
0

>  <Surface Efficiency>
0

>  <Assay Index>
269558

>  <Assay Category>


>  <Assay Organism>
Homo sapiens

>  <Target ID>
11365

>  <Target Name>
Cytochrome P450 2D6

>  <Target Organism>
Homo sapiens

>  <Target Description>
Target is a single protein chain

>  <Sequence Accession>
P10635

>  <Reference>
J Med Chem 49 (24), 6987-7001 (2006)

>  <Pubmed ID>
17125252

>  <DOI>
10.1021/jm060519r

$$$$
361862
Actelion Java MolfileCreator 1.0

 13 14  0  0  0  0  0  0  0  0999 V2000
    0.0000   -0.0000   -0.0000 O   0  0  0  0  0  0  0  0  0  0  0  0
   -0.0952   -1.4750   -0.0000 C   0  0  0  0  0  0  0  0  0  0  0  0
    1.4393    0.4044   -0.0000 C   0  0  0  0  0  0  0  0  0  0  0  0
   -1.3680   -2.2839   -0.0000 C   0  0  0  0  0  0  0  0  0  0  0  0
    1.2966   -2.0103   -0.0000 C   0  0  0  0  0  0  0  0  0  0  0  0
    2.2482   -0.8446   -0.0000 C   0  0  0  0  0  0  0  0  0  0  0  0
    1.9627    1.8200   -0.0000 C   0  0  0  0  0  0  0  0  0  0  0  0
   -2.6764   -1.5226   -0.0000 C   0  0  0  0  0  0  0  0  0  0  0  0
   -1.3799   -3.7827   -0.0000 C   0  0  0  0  0  0  0  0  0  0  0  0
    3.4377    2.0698   -0.0000 N   0  0  0  0  0  0  0  0  0  0  0  0
   -3.9849   -2.2601   -0.0000 C   0  0  0  0  0  0  0  0  0  0  0  0
   -2.7002   -4.5202   -0.0000 C   0  0  0  0  0  0  0  0  0  0  0  0
   -3.9968   -3.7589   -0.0000 C   0  0  0  0  0  0  0  0  0  0  0  0
  1  2  1  0  0  0  0
  1  3  1  0  0  0  0
  2  4  1  0  0  0  0
  2  5  2  0  0  0  0
  3  6  2  0  0  0  0
  3  7  1  0  0  0  0
  4  8  2  0  0  0  0
  4  9  1  0  0  0  0
  7 10  1  0  0  0  0
  8 11  1  0  0  0  0
  9 12  2  0  0  0  0
 11 13  2  0  0  0  0
  5  6  1  0  0  0  0
 12 13  1  0  0  0  0
M  END
>  <MolRegNo>
361862

>  <m>
=

>  <Value>
14800

>  <Unit>
nM

>  <Type>
Ki

>  <pValue>
4.83

>  <Ligand Efficiency>
0

>  <Binding Efficiency>
0

>  <Surface Efficiency>
0

>  <Assay Index>
269558

>  <Assay Category>


>  <Assay Organism>
Homo sapiens

>  <Target ID>
11365

>  <Target Name>
Cytochrome P450 2D6

>  <Target Organism>
Homo sapiens

>  <Target Description>
Target is a single protein chain

>  <Sequence Accession>
P10635

>  <Reference>
J Med Chem 49 (24), 6987-7001 (2006)

>  <Pubmed ID>
17125252

>  <DOI>
10.1021/jm060519r

$$$$
361861
Actelion Java MolfileCreator 1.0

 16 18  0  0  0  0  0  0  0  0999 V2000
    0.0000   -0.0000   -0.0000 S   0  0  0  0  0  0  0  0  0  0  0  0
   -1.5135   -0.3902   -0.0000 C   0  0  0  0  0  0  0  0  0  0  0  0
    0.0000    1.5016   -0.0000 C   0  0  0  0  0  0  0  0  0  0  0  0
   -2.3411    0.8750   -0.0000 S   0  0  0  0  0  0  0  0  0  0  0  0
   -2.0574   -1.7736   -0.0000 C   0  0  0  0  0  0  0  0  0  0  0  0
   -1.4070    2.0455   -0.0000 C   0  0  0  0  0  0  0  0  0  0  0  0
   -3.5117   -2.1520   -0.0000 O   0  0  0  0  0  0  0  0  0  0  0  0
   -1.2533   -3.0151   -0.0000 C   0  0  0  0  0  0  0  0  0  0  0  0
   -3.6063   -3.6181   -0.0000 C   0  0  0  0  0  0  0  0  0  0  0  0
   -2.1992   -4.1620   -0.0000 C   0  0  0  0  0  0  0  0  0  0  0  0
   -4.8715   -4.4221   -0.0000 C   0  0  0  0  0  0  0  0  0  0  0  0
   -4.8833   -5.9120   -0.0000 C   0  0  0  0  0  0  0  0  0  0  0  0
   -6.1721   -3.6654   -0.0000 C   0  0  0  0  0  0  0  0  0  0  0  0
   -6.1957   -6.6450   -0.0000 N   0  0  0  0  0  0  0  0  0  0  0  0
   -7.4727   -4.3985   -0.0000 C   0  0  0  0  0  0  0  0  0  0  0  0
   -7.4964   -5.8883   -0.0000 C   0  0  0  0  0  0  0  0  0  0  0  0
  1  2  1  0  0  0  0
  1  3  1  0  0  0  0
  2  4  1  0  0  0  0
  2  5  1  0  0  0  0
  3  6  1  0  0  0  0
  5  7  1  0  0  0  0
  5  8  2  0  0  0  0
  7  9  1  0  0  0  0
  8 10  1  0  0  0  0
  9 11  1  0  0  0  0
 11 12  2  0  0  0  0
 11 13  1  0  0  0  0
 12 14  1  0  0  0  0
 13 15  2  0  0  0  0
 14 16  2  0  0  0  0
  4  6  1  0  0  0  0
  9 10  2  0  0  0  0
 15 16  1  0  0  0  0
M  END
>  <MolRegNo>
361861

>  <m>
=

>  <Value>
38400

>  <Unit>
nM

>  <Type>
Ki

>  <pValue>
4.42

>  <Ligand Efficiency>
0

>  <Binding Efficiency>
0

>  <Surface Efficiency>
0

>  <Assay Index>
269558

>  <Assay Category>


>  <Assay Organism>
Homo sapiens

>  <Target ID>
11365

>  <Target Name>
Cytochrome P450 2D6

>  <Target Organism>
Homo sapiens

>  <Target Description>
Target is a single protein chain

>  <Sequence Accession>
P10635

>  <Reference>
J Med Chem 49 (24), 6987-7001 (2006)

>  <Pubmed ID>
17125252

>  <DOI>
10.1021/jm060519r

$$$$
361848
Actelion Java MolfileCreator 1.0

 14 15  0  0  0  0  0  0  0  0999 V2000
    0.0000   -0.0000   -0.0000 S   0  0  0  0  0  0  0  0  0  0  0  0
   -1.4962   -0.2256   -0.0000 C   0  0  0  0  0  0  0  0  0  0  0  0
    0.9381   -1.1519   -0.0000 C   0  0  0  0  0  0  0  0  0  0  0  0
   -2.0425   -1.6150   -0.0000 C   0  0  0  0  0  0  0  0  0  0  0  0
   -3.5031   -1.9950   -0.0000 O   0  0  0  0  0  0  0  0  0  0  0  0
   -1.2350   -2.8619   -0.0000 C   0  0  0  0  0  0  0  0  0  0  0  0
   -3.5981   -3.4675   -0.0000 C   0  0  0  0  0  0  0  0  0  0  0  0
   -2.1850   -4.0137   -0.0000 C   0  0  0  0  0  0  0  0  0  0  0  0
   -4.8687   -4.2750   -0.0000 C   0  0  0  0  0  0  0  0  0  0  0  0
   -4.8806   -5.7712   -0.0000 C   0  0  0  0  0  0  0  0  0  0  0  0
   -6.1750   -3.5150   -0.0000 C   0  0  0  0  0  0  0  0  0  0  0  0
   -6.1987   -6.5075   -0.0000 N   0  0  0  0  0  0  0  0  0  0  0  0
   -7.4812   -4.2512   -0.0000 C   0  0  0  0  0  0  0  0  0  0  0  0
   -7.5050   -5.7475   -0.0000 C   0  0  0  0  0  0  0  0  0  0  0  0
  1  2  1  0  0  0  0
  1  3  1  0  0  0  0
  2  4  1  0  0  0  0
  4  5  1  0  0  0  0
  4  6  2  0  0  0  0
  5  7  1  0  0  0  0
  6  8  1  0  0  0  0
  7  9  1  0  0  0  0
  9 10  2  0  0  0  0
  9 11  1  0  0  0  0
 10 12  1  0  0  0  0
 11 13  2  0  0  0  0
 12 14  2  0  0  0  0
  7  8  2  0  0  0  0
 13 14  1  0  0  0  0
M  END
>  <MolRegNo>
361848

>  <m>
=

>  <Value>
64500

>  <Unit>
nM

>  <Type>
Ki

>  <pValue>
4.19

>  <Ligand Efficiency>
0

>  <Binding Efficiency>
0

>  <Surface Efficiency>
0

>  <Assay Index>
269558

>  <Assay Category>


>  <Assay Organism>
Homo sapiens

>  <Target ID>
11365

>  <Target Name>
Cytochrome P450 2D6

>  <Target Organism>
Homo sapiens

>  <Target Description>
Target is a single protein chain

>  <Sequence Accession>
P10635

>  <Reference>
J Med Chem 49 (24), 6987-7001 (2006)

>  <Pubmed ID>
17125252

>  <DOI>
10.1021/jm060519r

$$$$
361847
Actelion Java MolfileCreator 1.0

 13 14  0  0  0  0  0  0  0  0999 V2000
    0.0000   -0.0000   -0.0000 S   0  0  0  0  0  0  0  0  0  0  0  0
   -1.4952   -0.2255   -0.0000 C   0  0  0  0  0  0  0  0  0  0  0  0
   -2.0411   -1.6139   -0.0000 C   0  0  0  0  0  0  0  0  0  0  0  0
   -3.5007   -1.9936   -0.0000 O   0  0  0  0  0  0  0  0  0  0  0  0
   -1.2341   -2.8599   -0.0000 C   0  0  0  0  0  0  0  0  0  0  0  0
   -3.5956   -3.4651   -0.0000 C   0  0  0  0  0  0  0  0  0  0  0  0
   -2.1835   -4.0110   -0.0000 C   0  0  0  0  0  0  0  0  0  0  0  0
   -4.8654   -4.2720   -0.0000 C   0  0  0  0  0  0  0  0  0  0  0  0
   -4.8773   -5.7673   -0.0000 C   0  0  0  0  0  0  0  0  0  0  0  0
   -6.1707   -3.5126   -0.0000 C   0  0  0  0  0  0  0  0  0  0  0  0
   -6.1945   -6.5030   -0.0000 N   0  0  0  0  0  0  0  0  0  0  0  0
   -7.4761   -4.2483   -0.0000 C   0  0  0  0  0  0  0  0  0  0  0  0
   -7.4998   -5.7435   -0.0000 C   0  0  0  0  0  0  0  0  0  0  0  0
  1  2  1  0  0  0  0
  2  3  1  0  0  0  0
  3  4  1  0  0  0  0
  3  5  2  0  0  0  0
  4  6  1  0  0  0  0
  5  7  1  0  0  0  0
  6  8  1  0  0  0  0
  8  9  2  0  0  0  0
  8 10  1  0  0  0  0
  9 11  1  0  0  0  0
 10 12  2  0  0  0  0
 11 13  2  0  0  0  0
  6  7  2  0  0  0  0
 12 13  1  0  0  0  0
M  END
>  <MolRegNo>
361847

>  <m>
=

>  <Value>
700

>  <Unit>
nM

>  <Type>
Ki

>  <pValue>
6.16

>  <Ligand Efficiency>
0

>  <Binding Efficiency>
0

>  <Surface Efficiency>
0

>  <Assay Index>
269558

>  <Assay Category>


>  <Assay Organism>
Homo sapiens

>  <Target ID>
11365

>  <Target Name>
Cytochrome P450 2D6

>  <Target Organism>
Homo sapiens

>  <Target Description>
Target is a single protein chain

>  <Sequence Accession>
P10635

>  <Reference>
J Med Chem 49 (24), 6987-7001 (2006)

>  <Pubmed ID>
17125252

>  <DOI>
10.1021/jm060519r

$$$$
361833
Actelion Java MolfileCreator 1.0

 16 17  0  0  0  0  0  0  0  0999 V2000
    0.0000   -0.0000   -0.0000 S   0  0  0  0  0  0  0  0  0  0  0  0
    0.5218    1.4113   -0.0000 C   0  0  0  0  0  0  0  0  0  0  0  0
   -1.4943   -0.2253   -0.0000 C   0  0  0  0  0  0  0  0  0  0  0  0
   -0.4388    2.5853   -0.0000 O   0  0  0  0  0  0  0  0  0  0  0  0
    1.9924    1.6603   -0.0000 C   0  0  0  0  0  0  0  0  0  0  0  0
   -2.0398   -1.6129   -0.0000 C   0  0  0  0  0  0  0  0  0  0  0  0
   -3.4985   -1.9924   -0.0000 O   0  0  0  0  0  0  0  0  0  0  0  0
   -1.2334   -2.8581   -0.0000 C   0  0  0  0  0  0  0  0  0  0  0  0
   -3.5934   -3.4629   -0.0000 C   0  0  0  0  0  0  0  0  0  0  0  0
   -2.1821   -4.0085   -0.0000 C   0  0  0  0  0  0  0  0  0  0  0  0
   -4.8623   -4.2694   -0.0000 C   0  0  0  0  0  0  0  0  0  0  0  0
   -4.8742   -5.7637   -0.0000 C   0  0  0  0  0  0  0  0  0  0  0  0
   -6.1669   -3.5104   -0.0000 C   0  0  0  0  0  0  0  0  0  0  0  0
   -6.1906   -6.4989   -0.0000 N   0  0  0  0  0  0  0  0  0  0  0  0
   -7.4714   -4.2457   -0.0000 C   0  0  0  0  0  0  0  0  0  0  0  0
   -7.4951   -5.7399   -0.0000 C   0  0  0  0  0  0  0  0  0  0  0  0
  1  2  1  0  0  0  0
  1  3  1  0  0  0  0
  2  4  2  0  0  0  0
  2  5  1  0  0  0  0
  3  6  1  0  0  0  0
  6  7  1  0  0  0  0
  6  8  2  0  0  0  0
  7  9  1  0  0  0  0
  8 10  1  0  0  0  0
  9 11  1  0  0  0  0
 11 12  2  0  0  0  0
 11 13  1  0  0  0  0
 12 14  1  0  0  0  0
 13 15  2  0  0  0  0
 14 16  2  0  0  0  0
  9 10  2  0  0  0  0
 15 16  1  0  0  0  0
M  END
>  <MolRegNo>
361833

>  <m>
=

>  <Value>
45400

>  <Unit>
nM

>  <Type>
Ki

>  <pValue>
4.34

>  <Ligand Efficiency>
0

>  <Binding Efficiency>
0

>  <Surface Efficiency>
0

>  <Assay Index>
269558

>  <Assay Category>


>  <Assay Organism>
Homo sapiens

>  <Target ID>
11365

>  <Target Name>
Cytochrome P450 2D6

>  <Target Organism>
Homo sapiens

>  <Target Description>
Target is a single protein chain

>  <Sequence Accession>
P10635

>  <Reference>
J Med Chem 49 (24), 6987-7001 (2006)

>  <Pubmed ID>
17125252

>  <DOI>
10.1021/jm060519r

$$$$
299668
Actelion Java MolfileCreator 1.0

 10 10  0  0  0  0  0  0  0  0999 V2000
    0.0000   -0.0000   -0.0000 N   0  0  0  0  0  0  0  0  0  0  0  0
    1.3189   -0.7623   -0.0000 C   0  0  0  0  0  0  0  0  0  0  0  0
   -0.0121    1.5488   -0.0000 C   0  0  0  0  0  0  0  0  0  0  0  0
    2.6378    0.0121   -0.0000 C   0  0  0  0  0  0  0  0  0  0  0  0
    1.3068    2.3232   -0.0000 C   0  0  0  0  0  0  0  0  0  0  0  0
    3.9568   -0.7502   -0.0000 C   0  0  0  0  0  0  0  0  0  0  0  0
    2.6257    1.5609   -0.0000 C   0  0  0  0  0  0  0  0  0  0  0  0
    5.2757   -1.5125   -0.0000 C   0  0  0  0  0  0  0  0  0  0  0  0
    6.5946   -2.2748   -0.0000 C   0  0  0  0  0  0  0  0  0  0  0  0
    7.6473   -1.6456   -0.0000 N   0  0  0  0  0  0  0  0  0  0  0  0
  1  2  2  0  0  0  0
  1  3  1  0  0  0  0
  2  4  1  0  0  0  0
  3  5  2  0  0  0  0
  4  6  1  0  0  0  0
  4  7  2  0  0  0  0
  6  8  3  0  0  0  0
  8  9  1  0  0  0  0
  9 10  1  0  0  0  0
  5  7  1  0  0  0  0
M  END
>  <MolRegNo>
299668

>  <m>
=

>  <Value>
60500

>  <Unit>
nM

>  <Type>
Ki

>  <pValue>
4.22

>  <Ligand Efficiency>
0

>  <Binding Efficiency>
0

>  <Surface Efficiency>
0

>  <Assay Index>
269558

>  <Assay Category>


>  <Assay Organism>
Homo sapiens

>  <Target ID>
11365

>  <Target Name>
Cytochrome P450 2D6

>  <Target Organism>
Homo sapiens

>  <Target Description>
Target is a single protein chain

>  <Sequence Accession>
P10635

>  <Reference>
J Med Chem 49 (24), 6987-7001 (2006)

>  <Pubmed ID>
17125252

>  <DOI>
10.1021/jm060519r

$$$$
299731
Actelion Java MolfileCreator 1.0

 15 16  0  0  0  0  0  0  0  0999 V2000
    0.0000   -0.0000   -0.0000 O   0  0  0  0  0  0  0  0  0  0  0  0
   -1.4048   -0.6176   -0.0000 C   0  0  0  0  0  0  0  0  0  0  0  0
    1.0173   -1.1384   -0.0000 C   0  0  0  0  0  0  0  0  0  0  0  0
   -2.7491    0.1695   -0.0000 C   0  0  0  0  0  0  0  0  0  0  0  0
   -1.2837   -2.1194   -0.0000 C   0  0  0  0  0  0  0  0  0  0  0  0
    0.2301   -2.4585   -0.0000 C   0  0  0  0  0  0  0  0  0  0  0  0
    2.5311   -0.9689   -0.0000 C   0  0  0  0  0  0  0  0  0  0  0  0
   -4.0934   -0.5934   -0.0000 C   0  0  0  0  0  0  0  0  0  0  0  0
   -2.7612    1.7197   -0.0000 C   0  0  0  0  0  0  0  0  0  0  0  0
    3.4152   -2.2041   -0.0000 N   0  0  0  0  0  0  0  0  0  0  0  0
   -5.4377    0.1817   -0.0000 N   0  0  0  0  0  0  0  0  0  0  0  0
   -4.1055    2.4948   -0.0000 C   0  0  0  0  0  0  0  0  0  0  0  0
    4.6263   -2.0709   -0.0000 C   0  0  0  0  0  0  0  0  0  0  0  0
    2.8945   -3.3183   -0.0000 C   0  0  0  0  0  0  0  0  0  0  0  0
   -5.4498    1.7318   -0.0000 C   0  0  0  0  0  0  0  0  0  0  0  0
  1  2  1  0  0  0  0
  1  3  1  0  0  0  0
  2  4  1  0  0  0  0
  2  5  2  0  0  0  0
  3  6  2  0  0  0  0
  3  7  1  0  0  0  0
  4  8  2  0  0  0  0
  4  9  1  0  0  0  0
  7 10  1  0  0  0  0
  8 11  1  0  0  0  0
  9 12  2  0  0  0  0
 10 13  1  0  0  0  0
 10 14  1  0  0  0  0
 11 15  2  0  0  0  0
  5  6  1  0  0  0  0
 12 15  1  0  0  0  0
M  END
>  <MolRegNo>
299731

>  <m>
=

>  <Value>
127000

>  <Unit>
nM

>  <Type>
Ki

>  <pValue>
0

>  <Ligand Efficiency>
0

>  <Binding Efficiency>
0

>  <Surface Efficiency>
0

>  <Assay Index>
269558

>  <Assay Category>


>  <Assay Organism>
Homo sapiens

>  <Target ID>
11365

>  <Target Name>
Cytochrome P450 2D6

>  <Target Organism>
Homo sapiens

>  <Target Description>
Target is a single protein chain

>  <Sequence Accession>
P10635

>  <Reference>
J Med Chem 49 (24), 6987-7001 (2006)

>  <Pubmed ID>
17125252

>  <DOI>
10.1021/jm060519r

$$$$
299729
Actelion Java MolfileCreator 1.0

 14 15  0  0  0  0  0  0  0  0999 V2000
    0.0000   -0.0000   -0.0000 O   0  0  0  0  0  0  0  0  0  0  0  0
   -1.3882   -0.6103   -0.0000 C   0  0  0  0  0  0  0  0  0  0  0  0
    1.0052   -1.1249   -0.0000 C   0  0  0  0  0  0  0  0  0  0  0  0
   -2.7165    0.1675   -0.0000 C   0  0  0  0  0  0  0  0  0  0  0  0
   -1.2685   -2.0942   -0.0000 C   0  0  0  0  0  0  0  0  0  0  0  0
    0.2274   -2.4293   -0.0000 C   0  0  0  0  0  0  0  0  0  0  0  0
    2.5011   -0.9574   -0.0000 C   0  0  0  0  0  0  0  0  0  0  0  0
   -4.0449   -0.5864   -0.0000 C   0  0  0  0  0  0  0  0  0  0  0  0
   -2.7285    1.6993   -0.0000 C   0  0  0  0  0  0  0  0  0  0  0  0
    3.3747   -2.1780   -0.0000 N   0  0  0  0  0  0  0  0  0  0  0  0
   -5.3732    0.1795   -0.0000 N   0  0  0  0  0  0  0  0  0  0  0  0
   -4.0568    2.4652   -0.0000 C   0  0  0  0  0  0  0  0  0  0  0  0
    4.5714   -2.0464   -0.0000 C   0  0  0  0  0  0  0  0  0  0  0  0
   -5.3852    1.7113   -0.0000 C   0  0  0  0  0  0  0  0  0  0  0  0
  1  2  1  0  0  0  0
  1  3  1  0  0  0  0
  2  4  1  0  0  0  0
  2  5  2  0  0  0  0
  3  6  2  0  0  0  0
  3  7  1  0  0  0  0
  4  8  2  0  0  0  0
  4  9  1  0  0  0  0
  7 10  1  0  0  0  0
  8 11  1  0  0  0  0
  9 12  2  0  0  0  0
 10 13  1  0  0  0  0
 11 14  2  0  0  0  0
  5  6  1  0  0  0  0
 12 14  1  0  0  0  0
M  END
>  <MolRegNo>
299729

>  <m>
=

>  <Value>
45300

>  <Unit>
nM

>  <Type>
Ki

>  <pValue>
4.34

>  <Ligand Efficiency>
0

>  <Binding Efficiency>
0

>  <Surface Efficiency>
0

>  <Assay Index>
269558

>  <Assay Category>


>  <Assay Organism>
Homo sapiens

>  <Target ID>
11365

>  <Target Name>
Cytochrome P450 2D6

>  <Target Organism>
Homo sapiens

>  <Target Description>
Target is a single protein chain

>  <Sequence Accession>
P10635

>  <Reference>
J Med Chem 49 (24), 6987-7001 (2006)

>  <Pubmed ID>
17125252

>  <DOI>
10.1021/jm060519r

$$$$
299730
Actelion Java MolfileCreator 1.0

 15 16  0  0  0  0  0  0  0  0999 V2000
    0.0000   -0.0000   -0.0000 S   0  0  0  0  0  0  0  0  0  0  0  0
   -0.1452    1.5246   -0.0000 C   0  0  0  0  0  0  0  0  0  0  0  0
    1.4883   -0.3146   -0.0000 C   0  0  0  0  0  0  0  0  0  0  0  0
   -1.4883    2.3111   -0.0000 C   0  0  0  0  0  0  0  0  0  0  0  0
    1.2342    2.1659   -0.0000 C   0  0  0  0  0  0  0  0  0  0  0  0
    2.2506    1.0285   -0.0000 C   0  0  0  0  0  0  0  0  0  0  0  0
    2.0933   -1.7061   -0.0000 C   0  0  0  0  0  0  0  0  0  0  0  0
   -2.8314    1.5488   -0.0000 C   0  0  0  0  0  0  0  0  0  0  0  0
   -1.5004    3.8599   -0.0000 C   0  0  0  0  0  0  0  0  0  0  0  0
    1.1737   -2.9403   -0.0000 N   0  0  0  0  0  0  0  0  0  0  0  0
   -4.1745    2.3232   -0.0000 N   0  0  0  0  0  0  0  0  0  0  0  0
   -2.8435    4.6343   -0.0000 C   0  0  0  0  0  0  0  0  0  0  0  0
    1.6577   -4.0535   -0.0000 C   0  0  0  0  0  0  0  0  0  0  0  0
   -0.0605   -2.7951   -0.0000 C   0  0  0  0  0  0  0  0  0  0  0  0
   -4.1866    3.8720   -0.0000 C   0  0  0  0  0  0  0  0  0  0  0  0
  1  2  1  0  0  0  0
  1  3  1  0  0  0  0
  2  4  1  0  0  0  0
  2  5  2  0  0  0  0
  3  6  2  0  0  0  0
  3  7  1  0  0  0  0
  4  8  2  0  0  0  0
  4  9  1  0  0  0  0
  7 10  1  0  0  0  0
  8 11  1  0  0  0  0
  9 12  2  0  0  0  0
 10 13  1  0  0  0  0
 10 14  1  0  0  0  0
 11 15  2  0  0  0  0
  5  6  1  0  0  0  0
 12 15  1  0  0  0  0
M  END
>  <MolRegNo>
299730

>  <m>
=

>  <Value>
14400

>  <Unit>
nM

>  <Type>
Ki

>  <pValue>
4.84

>  <Ligand Efficiency>
0

>  <Binding Efficiency>
0

>  <Surface Efficiency>
0

>  <Assay Index>
269558

>  <Assay Category>


>  <Assay Organism>
Homo sapiens

>  <Target ID>
11365

>  <Target Name>
Cytochrome P450 2D6

>  <Target Organism>
Homo sapiens

>  <Target Description>
Target is a single protein chain

>  <Sequence Accession>
P10635

>  <Reference>
J Med Chem 49 (24), 6987-7001 (2006)

>  <Pubmed ID>
17125252

>  <DOI>
10.1021/jm060519r

$$$$
299704
Actelion Java MolfileCreator 1.0

 14 15  0  0  0  0  0  0  0  0999 V2000
    0.0000   -0.0000   -0.0000 S   0  0  0  0  0  0  0  0  0  0  0  0
   -0.1436    1.5074   -0.0000 C   0  0  0  0  0  0  0  0  0  0  0  0
    1.4715   -0.3110   -0.0000 C   0  0  0  0  0  0  0  0  0  0  0  0
   -1.4715    2.2850   -0.0000 C   0  0  0  0  0  0  0  0  0  0  0  0
    1.2202    2.1414   -0.0000 C   0  0  0  0  0  0  0  0  0  0  0  0
    2.2251    1.0169   -0.0000 C   0  0  0  0  0  0  0  0  0  0  0  0
    2.0696   -1.6868   -0.0000 C   0  0  0  0  0  0  0  0  0  0  0  0
   -2.7994    1.5313   -0.0000 C   0  0  0  0  0  0  0  0  0  0  0  0
   -1.4834    3.8162   -0.0000 C   0  0  0  0  0  0  0  0  0  0  0  0
    1.1604   -2.9070   -0.0000 N   0  0  0  0  0  0  0  0  0  0  0  0
   -4.1273    2.2969   -0.0000 N   0  0  0  0  0  0  0  0  0  0  0  0
   -2.8113    4.5819   -0.0000 C   0  0  0  0  0  0  0  0  0  0  0  0
    1.6389   -4.0076   -0.0000 C   0  0  0  0  0  0  0  0  0  0  0  0
   -4.1392    3.8282   -0.0000 C   0  0  0  0  0  0  0  0  0  0  0  0
  1  2  1  0  0  0  0
  1  3  1  0  0  0  0
  2  4  1  0  0  0  0
  2  5  2  0  0  0  0
  3  6  2  0  0  0  0
  3  7  1  0  0  0  0
  4  8  2  0  0  0  0
  4  9  1  0  0  0  0
  7 10  1  0  0  0  0
  8 11  1  0  0  0  0
  9 12  2  0  0  0  0
 10 13  1  0  0  0  0
 11 14  2  0  0  0  0
  5  6  1  0  0  0  0
 12 14  1  0  0  0  0
M  END
>  <MolRegNo>
299704

>  <m>
=

>  <Value>
56500

>  <Unit>
nM

>  <Type>
Ki

>  <pValue>
4.25

>  <Ligand Efficiency>
0

>  <Binding Efficiency>
0

>  <Surface Efficiency>
0

>  <Assay Index>
269558

>  <Assay Category>


>  <Assay Organism>
Homo sapiens

>  <Target ID>
11365

>  <Target Name>
Cytochrome P450 2D6

>  <Target Organism>
Homo sapiens

>  <Target Description>
Target is a single protein chain

>  <Sequence Accession>
P10635

>  <Reference>
J Med Chem 49 (24), 6987-7001 (2006)

>  <Pubmed ID>
17125252

>  <DOI>
10.1021/jm060519r

$$$$
386060
Actelion Java MolfileCreator 1.0

 29 32  0  0  0  0  0  0  0  0999 V2000
    0.0000   -0.0000   -0.0000 O   0  0  0  0  0  0  0  0  0  0  0  0
   -0.0119   -1.4856   -0.0000 C   0  0  0  0  0  0  0  0  0  0  0  0
   -1.3192   -2.2343   -0.0000 N   0  0  0  0  0  0  0  0  0  0  0  0
    1.2835   -2.2224   -0.0000 N   0  0  0  0  0  0  0  0  0  0  0  0
   -2.6383   -1.4737   -0.0000 C   0  0  0  0  0  0  0  0  0  0  0  0
    2.5670   -1.4499   -0.0000 C   0  0  0  0  0  0  0  0  0  0  0  0
   -3.9456   -2.2105   -0.0000 C   0  0  0  0  0  0  0  0  0  0  0  0
   -2.6621    0.0475   -0.0000 C   0  0  0  0  0  0  0  0  0  0  0  0
    3.8505   -2.1867   -0.0000 C   0  0  0  0  0  0  0  0  0  0  0  0
    2.5433    0.0594   -0.0000 C   0  0  0  0  0  0  0  0  0  0  0  0
   -5.2529   -1.4499   -0.0000 C   0  0  0  0  0  0  0  0  0  0  0  0
   -3.9813    0.7963   -0.0000 C   0  0  0  0  0  0  0  0  0  0  0  0
    5.1341   -1.4261   -0.0000 C   0  0  0  0  0  0  0  0  0  0  0  0
    3.8387    0.8200   -0.0000 C   0  0  0  0  0  0  0  0  0  0  0  0
   -5.2648    0.0713   -0.0000 C   0  0  0  0  0  0  0  0  0  0  0  0
   -6.5602   -2.1986   -0.0000 C   0  0  0  0  0  0  0  0  0  0  0  0
    5.1222    0.0832   -0.0000 N   0  0  0  0  0  0  0  0  0  0  0  0
   -6.5721    0.8319   -0.0000 C   0  0  0  0  0  0  0  0  0  0  0  0
   -7.8675   -1.4380   -0.0000 C   0  0  0  0  0  0  0  0  0  0  0  0
    6.3106    0.9983   -0.0000 C   0  0  0  0  0  0  0  0  0  0  0  0
   -7.8794    0.0951   -0.0000 C   0  0  0  0  0  0  0  0  0  0  0  0
    7.6773    0.4160   -0.0000 C   0  0  0  0  0  0  0  0  0  0  0  0
    7.6536   -1.0696   -0.0000 C   0  0  0  0  0  0  0  0  0  0  0  0
    8.7469    1.4737   -0.0000 C   0  0  0  0  0  0  0  0  0  0  0  0
    8.6875   -2.1392   -0.0000 C   0  0  0  0  0  0  0  0  0  0  0  0
   10.2325    1.4618   -0.0000 C   0  0  0  0  0  0  0  0  0  0  0  0
   10.1730   -2.1511   -0.0000 C   0  0  0  0  0  0  0  0  0  0  0  0
   11.2664    0.3922   -0.0000 C   0  0  0  0  0  0  0  0  0  0  0  0
   11.2426   -1.0934   -0.0000 C   0  0  0  0  0  0  0  0  0  0  0  0
  1  2  2  0  0  0  0
  2  3  1  0  0  0  0
  2  4  1  0  0  0  0
  3  5  1  0  0  0  0
  4  6  1  0  0  0  0
  5  7  2  0  0  0  0
  5  8  1  0  0  0  0
  6  9  1  0  0  0  0
  6 10  1  0  0  0  0
  7 11  1  0  0  0  0
  8 12  2  0  0  0  0
  9 13  1  0  0  0  0
 10 14  1  0  0  0  0
 11 15  1  0  0  0  0
 11 16  2  0  0  0  0
 13 17  1  0  0  0  0
 15 18  2  0  0  0  0
 16 19  1  0  0  0  0
 17 20  1  0  0  0  0
 18 21  1  0  0  0  0
 20 22  1  0  0  0  0
 22 23  2  0  0  0  0
 22 24  1  0  0  0  0
 23 25  1  0  0  0  0
 24 26  1  0  0  0  0
 25 27  1  0  0  0  0
 26 28  1  0  0  0  0
 27 29  1  0  0  0  0
 12 15  1  0  0  0  0
 14 17  1  0  0  0  0
 19 21  2  0  0  0  0
 28 29  1  0  0  0  0
M  END
>  <MolRegNo>
386060

>  <m>
=

>  <Value>
600

>  <Unit>
nM

>  <Type>
Ki

>  <pValue>
6.22

>  <Ligand Efficiency>
0

>  <Binding Efficiency>
0

>  <Surface Efficiency>
0

>  <Assay Index>
286541

>  <Assay Category>


>  <Assay Organism>
Homo sapiens

>  <Target ID>
11365

>  <Target Name>
Cytochrome P450 2D6

>  <Target Organism>
Homo sapiens

>  <Target Description>
Target is a single protein chain

>  <Sequence Accession>
P10635

>  <Reference>
Bioorg Med Chem Lett 17 (3), 697-701 (2007)

>  <Pubmed ID>
17097877

>  <DOI>
10.1016/j.bmcl.2006.10.088

$$$$
386157
Actelion Java MolfileCreator 1.0

 34 37  0  0  1  0  0  0  0  0999 V2000
    0.0000   -0.0000   -0.0000 F   0  0  0  0  0  0  0  0  0  0  0  0
    1.2963    0.7492   -0.0000 C   0  0  0  0  0  0  0  0  0  0  0  0
    2.0337   -0.5471   -0.0000 F   0  0  0  0  0  0  0  0  0  0  0  0
    0.5352    2.0693   -0.0000 F   0  0  0  0  0  0  0  0  0  0  0  0
    2.5807    1.5223   -0.0000 C   0  0  0  0  0  0  0  0  0  0  0  0
    3.8652    0.8087   -0.0000 C   0  0  0  0  0  0  0  0  0  0  0  0
    2.5688    3.0445   -0.0000 C   0  0  0  0  0  0  0  0  0  0  0  0
    5.1377    1.5698   -0.0000 C   0  0  0  0  0  0  0  0  0  0  0  0
    3.8414    3.8057   -0.0000 C   0  0  0  0  0  0  0  0  0  0  0  0
    6.4221    0.8325   -0.0000 N   0  0  0  0  0  0  0  0  0  0  0  0
    5.1258    3.0683   -0.0000 C   0  0  0  0  0  0  0  0  0  0  0  0
    3.8295    5.3161   -0.0000 C   0  0  0  0  0  0  0  0  0  0  0  0
    7.6946    1.5936   -0.0000 C   0  0  0  0  0  0  0  0  0  0  0  0
    3.8057    6.8383   -0.0000 F   0  0  0  0  0  0  0  0  0  0  0  0
    5.3161    5.3280   -0.0000 F   0  0  0  0  0  0  0  0  0  0  0  0
    2.3191    5.3161   -0.0000 F   0  0  0  0  0  0  0  0  0  0  0  0
    7.6827    3.0921   -0.0000 O   0  0  0  0  0  0  0  0  0  0  0  0
    8.9790    0.8682   -0.0000 N   0  0  0  0  0  0  0  0  0  0  0  0
   10.2635    1.6293   -0.0000 C   0  0  0  0  0  0  0  0  0  0  0  0
   10.2516    3.1397   -0.0000 C   0  0  0  0  0  0  0  0  0  0  0  0
   11.5360    0.9039   -0.0000 C   0  0  0  0  0  0  0  0  0  0  0  0
   11.5241    3.9127   -0.0000 C   0  0  0  0  0  0  0  0  0  0  0  0
   12.8085    1.6531   -0.0000 C   0  0  0  0  0  0  0  0  0  0  0  0
   12.7966    3.1635   -0.0000 N   0  0  0  0  0  0  0  0  0  0  0  0
   14.0810    3.9246   -0.0000 C   0  0  0  0  0  0  0  0  0  0  0  0
   15.3655    3.1754   -0.0000 C   0  0  0  0  0  0  0  0  0  0  0  0
   15.3417    1.7007   -0.0000 C   0  0  0  0  0  0  0  0  0  0  0  0
   16.6380    3.9365   -0.0000 C   0  0  0  0  0  0  0  0  0  0  0  0
   16.6142    0.9633   -0.0000 C   0  0  0  0  0  0  0  0  0  0  0  0
   17.9224    3.1873   -0.0000 C   0  0  0  0  0  0  0  0  0  0  0  0
   16.2336    2.5094   -0.0000 C   0  0  0  0  0  0  0  0  0  0  0  0
   17.8986    1.7126   -0.0000 C   0  0  0  0  0  0  0  0  0  0  0  0
   17.8986    4.7095   -0.0000 C   0  0  0  0  0  0  0  0  0  0  0  0
   19.1830    2.4618   -0.0000 C   0  0  0  0  0  0  0  0  0  0  0  0
  1  2  1  0  0  0  0
  2  3  1  0  0  0  0
  2  4  1  0  0  0  0
  2  5  1  0  0  0  0
  5  6  2  0  0  0  0
  5  7  1  0  0  0  0
  6  8  1  0  0  0  0
  7  9  2  0  0  0  0
  8 10  1  0  0  0  0
  8 11  2  0  0  0  0
  9 12  1  0  0  0  0
 10 13  1  0  0  0  0
 12 14  1  0  0  0  0
 12 15  1  0  0  0  0
 12 16  1  0  0  0  0
 13 17  2  0  0  0  0
 13 18  1  0  0  0  0
 18 19  1  0  0  0  0
 19 20  1  0  0  0  0
 19 21  1  0  0  0  0
 20 22  1  0  0  0  0
 21 23  1  0  0  0  0
 22 24  1  0  0  0  0
 24 25  1  0  0  0  0
 25 26  1  0  0  0  0
 26 27  2  0  0  0  0
 26 28  1  0  0  0  0
 27 29  1  0  0  0  0
 28 30  1  0  0  0  0
 28 31  1  6  0  0  0
 32 29  1  1  0  0  0
 30 33  1  0  0  0  0
 30 34  1  0  0  0  0
  9 11  1  0  0  0  0
 23 24  1  0  0  0  0
 30 32  1  0  0  0  0
 31 32  1  0  0  0  0
M  END
>  <MolRegNo>
386157

>  <m>
=

>  <Value>
5000

>  <Unit>
nM

>  <Type>
Ki

>  <pValue>
5.3

>  <Ligand Efficiency>
0

>  <Binding Efficiency>
0

>  <Surface Efficiency>
0

>  <Assay Index>
310498

>  <Assay Category>


>  <Assay Organism>


>  <Target ID>
11365

>  <Target Name>
Cytochrome P450 2D6

>  <Target Organism>
Homo sapiens

>  <Target Description>
Target is a single protein chain

>  <Sequence Accession>
P10635

>  <Reference>
Bioorg Med Chem Lett 18 (1), 147-151 (2008)

>  <Pubmed ID>
18032038

>  <DOI>
10.1016/j.bmcl.2007.10.109

$$$$
422360
Actelion Java MolfileCreator 1.0

 36 40  0  0  0  0  0  0  0  0999 V2000
    0.0000   -0.0000   -0.0000 F   0  0  0  0  0  0  0  0  0  0  0  0
    0.0000   -1.4659   -0.0000 C   0  0  0  0  0  0  0  0  0  0  0  0
    1.2783   -2.1813   -0.0000 C   0  0  0  0  0  0  0  0  0  0  0  0
   -1.2900   -2.1930   -0.0000 C   0  0  0  0  0  0  0  0  0  0  0  0
    1.2783   -3.6589   -0.0000 C   0  0  0  0  0  0  0  0  0  0  0  0
   -1.3017   -3.6707   -0.0000 C   0  0  0  0  0  0  0  0  0  0  0  0
    2.5566   -4.3860   -0.0000 N   0  0  0  0  0  0  0  0  0  0  0  0
   -0.0117   -4.3860   -0.0000 C   0  0  0  0  0  0  0  0  0  0  0  0
   -2.5917   -4.3978   -0.0000 C   0  0  0  0  0  0  0  0  0  0  0  0
    3.8231   -3.6238   -0.0000 C   0  0  0  0  0  0  0  0  0  0  0  0
   -3.8935   -5.1131   -0.0000 F   0  0  0  0  0  0  0  0  0  0  0  0
   -1.8647   -5.6760   -0.0000 F   0  0  0  0  0  0  0  0  0  0  0  0
   -3.3423   -3.1078   -0.0000 F   0  0  0  0  0  0  0  0  0  0  0  0
    3.8114   -2.1344   -0.0000 O   0  0  0  0  0  0  0  0  0  0  0  0
    5.1014   -4.3509   -0.0000 N   0  0  0  0  0  0  0  0  0  0  0  0
    6.3680   -3.5886   -0.0000 C   0  0  0  0  0  0  0  0  0  0  0  0
    6.3328   -2.0992   -0.0000 C   0  0  0  0  0  0  0  0  0  0  0  0
    7.6345   -4.3157   -0.0000 C   0  0  0  0  0  0  0  0  0  0  0  0
    7.6111   -1.3486   -0.0000 C   0  0  0  0  0  0  0  0  0  0  0  0
    8.9011   -3.5651   -0.0000 C   0  0  0  0  0  0  0  0  0  0  0  0
    8.8893   -2.0757   -0.0000 N   0  0  0  0  0  0  0  0  0  0  0  0
    8.8776   -0.5864   -0.0000 C   0  0  0  0  0  0  0  0  0  0  0  0
   10.1676   -2.8028   -0.0000 C   0  0  0  0  0  0  0  0  0  0  0  0
   10.1559   -1.3252   -0.0000 C   0  0  0  0  0  0  0  0  0  0  0  0
   11.4225   -2.0523   -0.0000 C   0  0  0  0  0  0  0  0  0  0  0  0
   12.6890   -1.3017   -0.0000 C   0  0  0  0  0  0  0  0  0  0  0  0
   11.3990   -3.5182   -0.0000 C   0  0  0  0  0  0  0  0  0  0  0  0
   13.9556   -2.0406   -0.0000 C   0  0  0  0  0  0  0  0  0  0  0  0
   12.6656   -4.2453   -0.0000 C   0  0  0  0  0  0  0  0  0  0  0  0
   13.9204   -3.4948   -0.0000 N   0  0  0  0  0  0  0  0  0  0  0  0
   15.2221   -2.7677   -0.0000 C   0  0  0  0  0  0  0  0  0  0  0  0
   13.9321   -4.9724   -0.0000 C   0  0  0  0  0  0  0  0  0  0  0  0
   15.3863   -3.4830   -0.0000 C   0  0  0  0  0  0  0  0  0  0  0  0
   15.1987   -4.2336   -0.0000 C   0  0  0  0  0  0  0  0  0  0  0  0
   16.1134   -4.7496   -0.0000 O   0  0  0  0  0  0  0  0  0  0  0  0
   16.1134   -2.1930   -0.0000 C   0  0  0  0  0  0  0  0  0  0  0  0
  1  2  1  0  0  0  0
  2  3  2  0  0  0  0
  2  4  1  0  0  0  0
  3  5  1  0  0  0  0
  4  6  2  0  0  0  0
  5  7  1  0  0  0  0
  5  8  2  0  0  0  0
  6  9  1  0  0  0  0
  7 10  1  0  0  0  0
  9 11  1  0  0  0  0
  9 12  1  0  0  0  0
  9 13  1  0  0  0  0
 10 14  2  0  0  0  0
 10 15  1  0  0  0  0
 15 16  1  0  0  0  0
 16 17  1  0  0  0  0
 16 18  1  0  0  0  0
 17 19  1  0  0  0  0
 18 20  1  0  0  0  0
 19 21  1  0  0  0  0
 19 22  1  0  0  0  0
 20 23  1  0  0  0  0
 21 24  1  0  0  0  0
 24 25  1  0  0  0  0
 25 26  2  0  0  0  0
 25 27  1  0  0  0  0
 26 28  1  0  0  0  0
 27 29  1  0  0  0  0
 28 30  1  0  0  0  0
 28 31  1  0  0  0  0
 29 32  1  0  0  0  0
 30 33  1  0  0  0  0
 31 34  1  0  0  0  0
 33 35  2  0  0  0  0
 33 36  1  0  0  0  0
  6  8  1  0  0  0  0
 20 21  1  0  0  0  0
 22 23  1  0  0  0  0
 29 30  1  0  0  0  0
 32 34  1  0  0  0  0
M  END
>  <MolRegNo>
422360

>  <m>
=

>  <Value>
15000

>  <Unit>
nM

>  <Type>
Ki

>  <pValue>
4.82

>  <Ligand Efficiency>
0

>  <Binding Efficiency>
0

>  <Surface Efficiency>
0

>  <Assay Index>
310498

>  <Assay Category>


>  <Assay Organism>


>  <Target ID>
11365

>  <Target Name>
Cytochrome P450 2D6

>  <Target Organism>
Homo sapiens

>  <Target Description>
Target is a single protein chain

>  <Sequence Accession>
P10635

>  <Reference>
Bioorg Med Chem Lett 18 (1), 147-151 (2008)

>  <Pubmed ID>
18032038

>  <DOI>
10.1016/j.bmcl.2007.10.109

$$$$
494218
Actelion Java MolfileCreator 1.0

 24 27  0  0  0  0  0  0  0  0999 V2000
    0.0000   -0.0000   -0.0000 O   0  0  0  0  0  0  0  0  0  0  0  0
    1.1095    1.0140   -0.0000 C   0  0  0  0  0  0  0  0  0  0  0  0
    0.5965   -1.3600   -0.0000 C   0  0  0  0  0  0  0  0  0  0  0  0
    2.3979    0.2744   -0.0000 C   0  0  0  0  0  0  0  0  0  0  0  0
    1.0975    2.5291   -0.0000 C   0  0  0  0  0  0  0  0  0  0  0  0
    2.0758   -1.1930   -0.0000 O   0  0  0  0  0  0  0  0  0  0  0  0
    3.6983    1.0379   -0.0000 C   0  0  0  0  0  0  0  0  0  0  0  0
    2.3860    3.2926   -0.0000 C   0  0  0  0  0  0  0  0  0  0  0  0
    3.6863    2.5649   -0.0000 C   0  0  0  0  0  0  0  0  0  0  0  0
    2.3740    4.8077   -0.0000 O   0  0  0  0  0  0  0  0  0  0  0  0
    4.9747    3.3284   -0.0000 C   0  0  0  0  0  0  0  0  0  0  0  0
    4.9628    4.8435   -0.0000 N   0  0  0  0  0  0  0  0  0  0  0  0
    6.2632    2.5888   -0.0000 C   0  0  0  0  0  0  0  0  0  0  0  0
    6.1677    5.7383   -0.0000 C   0  0  0  0  0  0  0  0  0  0  0  0
    3.7340    5.7263   -0.0000 C   0  0  0  0  0  0  0  0  0  0  0  0
    6.2512    1.0975   -0.0000 C   0  0  0  0  0  0  0  0  0  0  0  0
    7.5397    3.3642   -0.0000 C   0  0  0  0  0  0  0  0  0  0  0  0
    5.6905    7.1818   -0.0000 N   0  0  0  0  0  0  0  0  0  0  0  0
    4.1874    7.1698   -0.0000 C   0  0  0  0  0  0  0  0  0  0  0  0
    7.5516    0.3698   -0.0000 C   0  0  0  0  0  0  0  0  0  0  0  0
    8.8281    2.6365   -0.0000 C   0  0  0  0  0  0  0  0  0  0  0  0
    8.8400    1.1333   -0.0000 C   0  0  0  0  0  0  0  0  0  0  0  0
    9.9495    0.1432   -0.0000 O   0  0  0  0  0  0  0  0  0  0  0  0
    9.6274   -1.3123   -0.0000 C   0  0  0  0  0  0  0  0  0  0  0  0
  1  2  1  0  0  0  0
  1  3  1  0  0  0  0
  2  4  2  0  0  0  0
  2  5  1  0  0  0  0
  3  6  1  0  0  0  0
  4  7  1  0  0  0  0
  5  8  2  0  0  0  0
  7  9  2  0  0  0  0
  8 10  1  0  0  0  0
  9 11  1  0  0  0  0
 11 12  1  0  0  0  0
 11 13  1  0  0  0  0
 12 14  1  0  0  0  0
 12 15  1  0  0  0  0
 13 16  2  0  0  0  0
 13 17  1  0  0  0  0
 14 18  2  0  0  0  0
 15 19  2  0  0  0  0
 16 20  1  0  0  0  0
 17 21  2  0  0  0  0
 20 22  2  0  0  0  0
 22 23  1  0  0  0  0
 23 24  1  0  0  0  0
  4  6  1  0  0  0  0
  8  9  1  0  0  0  0
 18 19  1  0  0  0  0
 21 22  1  0  0  0  0
M  END
>  <MolRegNo>
494218

>  <m>
=

>  <Value>
13.1

>  <Unit>
nM

>  <Type>
Ki

>  <pValue>
7.88

>  <Ligand Efficiency>
0.45

>  <Binding Efficiency>
24.3

>  <Surface Efficiency>
11.99

>  <Assay Index>
409655

>  <Assay Category>


>  <Assay Organism>
Homo sapiens

>  <Target ID>
65

>  <Target Name>
Cytochrome P450 19A1

>  <Target Organism>
Homo sapiens

>  <Target Description>
Target is a single protein chain

>  <Sequence Accession>
P11511

>  <Reference>
J Med Chem 52 (1), 143-150 (2009)

>  <Pubmed ID>
19072235

>  <DOI>
10.1021/jm800945c

$$$$
3281
Actelion Java MolfileCreator 1.0

 19 21  0  0  0  0  0  0  0  0999 V2000
    0.0000   -0.0000   -0.0000 O   0  0  0  0  0  0  0  0  0  0  0  0
   -0.0122    1.2515   -0.0000 C   0  0  0  0  0  0  0  0  0  0  0  0
    1.3122    2.0291   -0.0000 C   0  0  0  0  0  0  0  0  0  0  0  0
   -1.3608    2.0291   -0.0000 C   0  0  0  0  0  0  0  0  0  0  0  0
    2.6366    1.2636   -0.0000 C   0  0  0  0  0  0  0  0  0  0  0  0
    1.3001    3.5843   -0.0000 C   0  0  0  0  0  0  0  0  0  0  0  0
   -1.3730    3.5843   -0.0000 C   0  0  0  0  0  0  0  0  0  0  0  0
   -2.7095    1.2758   -0.0000 C   0  0  0  0  0  0  0  0  0  0  0  0
    3.9610    2.0412   -0.0000 C   0  0  0  0  0  0  0  0  0  0  0  0
    2.6245   -0.2673   -0.0000 C   0  0  0  0  0  0  0  0  0  0  0  0
   -0.0486    4.3619   -0.0000 O   0  0  0  0  0  0  0  0  0  0  0  0
   -2.7217    4.3619   -0.0000 C   0  0  0  0  0  0  0  0  0  0  0  0
   -4.0582    2.0534   -0.0000 C   0  0  0  0  0  0  0  0  0  0  0  0
    5.2854    1.2758   -0.0000 C   0  0  0  0  0  0  0  0  0  0  0  0
    3.9488   -1.0328   -0.0000 C   0  0  0  0  0  0  0  0  0  0  0  0
   -4.0703    3.6086   -0.0000 C   0  0  0  0  0  0  0  0  0  0  0  0
    5.2732   -0.2552   -0.0000 C   0  0  0  0  0  0  0  0  0  0  0  0
   -5.1517    4.2404   -0.0000 O   0  0  0  0  0  0  0  0  0  0  0  0
    6.3303   -0.8627   -0.0000 O   0  0  0  0  0  0  0  0  0  0  0  0
  1  2  2  0  0  0  0
  2  3  1  0  0  0  0
  2  4  1  0  0  0  0
  3  5  1  0  0  0  0
  3  6  2  0  0  0  0
  4  7  2  0  0  0  0
  4  8  1  0  0  0  0
  5  9  2  0  0  0  0
  5 10  1  0  0  0  0
  6 11  1  0  0  0  0
  7 12  1  0  0  0  0
  8 13  2  0  0  0  0
  9 14  1  0  0  0  0
 10 15  2  0  0  0  0
 12 16  2  0  0  0  0
 14 17  2  0  0  0  0
 16 18  1  0  0  0  0
 17 19  1  0  0  0  0
  7 11  1  0  0  0  0
 13 16  1  0  0  0  0
 15 17  1  0  0  0  0
M  END
>  <MolRegNo>
3281

>  <m>
=

>  <Value>
1.0e5

>  <Unit>
nM

>  <Type>
Ki

>  <pValue>
4

>  <Ligand Efficiency>
0.29

>  <Binding Efficiency>
15.73

>  <Surface Efficiency>
5.66

>  <Assay Index>
384489

>  <Assay Category>


>  <Assay Organism>
Homo sapiens

>  <Target ID>
65

>  <Target Name>
Cytochrome P450 19A1

>  <Target Organism>
Homo sapiens

>  <Target Description>
Target is a single protein chain

>  <Sequence Accession>
P11511

>  <Reference>
Bioorg Med Chem 16 (18), 8466-8470 (2008)

>  <Pubmed ID>
18778944

>  <DOI>
10.1016/j.bmc.2008.08.034

$$$$
119522
Actelion Java MolfileCreator 1.0

 20 22  0  0  0  0  0  0  0  0999 V2000
    0.0000   -0.0000   -0.0000 O   0  0  0  0  0  0  0  0  0  0  0  0
   -0.0118    1.5085   -0.0000 C   0  0  0  0  0  0  0  0  0  0  0  0
    1.2728    2.2627   -0.0000 C   0  0  0  0  0  0  0  0  0  0  0  0
   -1.3199    2.2627   -0.0000 C   0  0  0  0  0  0  0  0  0  0  0  0
    2.5573    1.5320   -0.0000 O   0  0  0  0  0  0  0  0  0  0  0  0
    1.2610    3.7712   -0.0000 C   0  0  0  0  0  0  0  0  0  0  0  0
   -1.3317    3.7712   -0.0000 C   0  0  0  0  0  0  0  0  0  0  0  0
   -2.6280    1.5320   -0.0000 C   0  0  0  0  0  0  0  0  0  0  0  0
   -0.0471    4.5372   -0.0000 O   0  0  0  0  0  0  0  0  0  0  0  0
    2.5455    4.5372   -0.0000 C   0  0  0  0  0  0  0  0  0  0  0  0
   -2.6398    4.5372   -0.0000 C   0  0  0  0  0  0  0  0  0  0  0  0
   -2.6398    0.0471   -0.0000 O   0  0  0  0  0  0  0  0  0  0  0  0
   -3.9362    2.2863   -0.0000 C   0  0  0  0  0  0  0  0  0  0  0  0
    3.8419    3.7947   -0.0000 C   0  0  0  0  0  0  0  0  0  0  0  0
    2.5338    6.0457   -0.0000 C   0  0  0  0  0  0  0  0  0  0  0  0
   -3.9480    3.7947   -0.0000 C   0  0  0  0  0  0  0  0  0  0  0  0
    5.1147    4.5608   -0.0000 C   0  0  0  0  0  0  0  0  0  0  0  0
    3.8301    6.7881   -0.0000 C   0  0  0  0  0  0  0  0  0  0  0  0
   -5.2561    4.5608   -0.0000 O   0  0  0  0  0  0  0  0  0  0  0  0
    5.1029    6.0692   -0.0000 C   0  0  0  0  0  0  0  0  0  0  0  0
  1  2  2  0  0  0  0
  2  3  1  0  0  0  0
  2  4  1  0  0  0  0
  3  5  1  0  0  0  0
  3  6  2  0  0  0  0
  4  7  2  0  0  0  0
  4  8  1  0  0  0  0
  6  9  1  0  0  0  0
  6 10  1  0  0  0  0
  7 11  1  0  0  0  0
  8 12  1  0  0  0  0
  8 13  2  0  0  0  0
 10 14  2  0  0  0  0
 10 15  1  0  0  0  0
 11 16  2  0  0  0  0
 14 17  1  0  0  0  0
 15 18  2  0  0  0  0
 16 19  1  0  0  0  0
 17 20  2  0  0  0  0
  7  9  1  0  0  0  0
 13 16  1  0  0  0  0
 18 20  1  0  0  0  0
M  END
>  <MolRegNo>
119522

>  <m>
=

>  <Value>
1.0e5

>  <Unit>
nM

>  <Type>
Ki

>  <pValue>
4

>  <Ligand Efficiency>
0.27

>  <Binding Efficiency>
14.8

>  <Surface Efficiency>
4.4

>  <Assay Index>
384489

>  <Assay Category>


>  <Assay Organism>
Homo sapiens

>  <Target ID>
65

>  <Target Name>
Cytochrome P450 19A1

>  <Target Organism>
Homo sapiens

>  <Target Description>
Target is a single protein chain

>  <Sequence Accession>
P11511

>  <Reference>
Bioorg Med Chem 16 (18), 8466-8470 (2008)

>  <Pubmed ID>
18778944

>  <DOI>
10.1016/j.bmc.2008.08.034

$$$$
398656
Actelion Java MolfileCreator 1.0

 29 31  0  0  0  0  0  0  0  0999 V2000
    0.0000   -0.0000   -0.0000 F   0  0  0  0  0  0  0  0  0  0  0  0
   -1.5109   -0.0000   -0.0000 C   0  0  0  0  0  0  0  0  0  0  0  0
   -1.5109   -1.4871   -0.0000 F   0  0  0  0  0  0  0  0  0  0  0  0
   -1.5228    1.5109   -0.0000 F   0  0  0  0  0  0  0  0  0  0  0  0
   -3.0218   -0.0000   -0.0000 C   0  0  0  0  0  0  0  0  0  0  0  0
   -3.0337   -1.4871   -0.0000 C   0  0  0  0  0  0  0  0  0  0  0  0
   -3.0456    1.5228   -0.0000 C   0  0  0  0  0  0  0  0  0  0  0  0
   -4.5327   -0.0000   -0.0000 C   0  0  0  0  0  0  0  0  0  0  0  0
   -4.3424   -2.2247   -0.0000 C   0  0  0  0  0  0  0  0  0  0  0  0
   -1.7369   -2.2366   -0.0000 C   0  0  0  0  0  0  0  0  0  0  0  0
   -4.3542   -3.7118   -0.0000 C   0  0  0  0  0  0  0  0  0  0  0  0
   -1.7488   -3.7356   -0.0000 C   0  0  0  0  0  0  0  0  0  0  0  0
   -3.0694   -4.4613   -0.0000 C   0  0  0  0  0  0  0  0  0  0  0  0
   -5.6748   -4.4494   -0.0000 C   0  0  0  0  0  0  0  0  0  0  0  0
   -3.0932   -5.9484   -0.0000 O   0  0  0  0  0  0  0  0  0  0  0  0
   -6.9835   -3.6761   -0.0000 N   0  0  0  0  0  0  0  0  0  0  0  0
   -1.8083   -6.6979   -0.0000 C   0  0  0  0  0  0  0  0  0  0  0  0
   -8.3040   -4.4137   -0.0000 C   0  0  0  0  0  0  0  0  0  0  0  0
   -8.3159   -5.9008   -0.0000 C   0  0  0  0  0  0  0  0  0  0  0  0
   -9.6127   -3.6404   -0.0000 C   0  0  0  0  0  0  0  0  0  0  0  0
   -9.6246   -6.6384   -0.0000 N   0  0  0  0  0  0  0  0  0  0  0  0
   -7.0310   -6.6384   -0.0000 C   0  0  0  0  0  0  0  0  0  0  0  0
  -10.9213   -4.3899   -0.0000 C   0  0  0  0  0  0  0  0  0  0  0  0
  -10.9332   -5.8770   -0.0000 C   0  0  0  0  0  0  0  0  0  0  0  0
   -7.0429   -8.1374   -0.0000 C   0  0  0  0  0  0  0  0  0  0  0  0
   -5.7462   -5.8770   -0.0000 C   0  0  0  0  0  0  0  0  0  0  0  0
   -5.7581   -8.8750   -0.0000 C   0  0  0  0  0  0  0  0  0  0  0  0
   -4.4613   -6.6146   -0.0000 C   0  0  0  0  0  0  0  0  0  0  0  0
   -4.4613   -8.1137   -0.0000 C   0  0  0  0  0  0  0  0  0  0  0  0
  1  2  1  0  0  0  0
  2  3  1  0  0  0  0
  2  4  1  0  0  0  0
  2  5  1  0  0  0  0
  5  6  1  0  0  0  0
  5  7  1  0  0  0  0
  5  8  1  0  0  0  0
  6  9  2  0  0  0  0
  6 10  1  0  0  0  0
  9 11  1  0  0  0  0
 10 12  2  0  0  0  0
 11 13  2  0  0  0  0
 11 14  1  0  0  0  0
 13 15  1  0  0  0  0
 14 16  1  0  0  0  0
 15 17  1  0  0  0  0
 18 16  1  1  0  0  0
 18 19  1  0  0  0  0
 18 20  1  0  0  0  0
 19 21  1  0  0  0  0
 19 22  1  1  0  0  0
 20 23  1  0  0  0  0
 21 24  1  0  0  0  0
 22 25  2  0  0  0  0
 22 26  1  0  0  0  0
 25 27  1  0  0  0  0
 26 28  2  0  0  0  0
 27 29  2  0  0  0  0
 12 13  1  0  0  0  0
 23 24  1  0  0  0  0
 28 29  1  0  0  0  0
M  END
>  <MolRegNo>
398656

>  <m>
=

>  <Value>
840

>  <Unit>
nM

>  <Type>
Ki

>  <pValue>
6.08

>  <Ligand Efficiency>
0

>  <Binding Efficiency>
0

>  <Surface Efficiency>
0

>  <Assay Index>
363185

>  <Assay Category>


>  <Assay Organism>
Homo sapiens

>  <Target ID>
11365

>  <Target Name>
Cytochrome P450 2D6

>  <Target Organism>
Homo sapiens

>  <Target Description>
Target is a single protein chain

>  <Sequence Accession>
P10635

>  <Reference>
Bioorg Med Chem 16 (15), 7193-7205 (2008)

>  <Pubmed ID>
18640044

>  <DOI>
10.1016/j.bmc.2008.06.047

$$$$
489439
Actelion Java MolfileCreator 1.0

 34 38  0  0  1  0  0  0  0  0999 V2000
    0.0000   -0.0000   -0.0000 O   0  0  0  0  0  0  0  0  0  0  0  0
   -1.3214   -0.7667   -0.0000 C   0  0  0  0  0  0  0  0  0  0  0  0
    1.3051   -0.7178   -0.0000 C   0  0  0  0  0  0  0  0  0  0  0  0
   -2.6591   -0.0163   -0.0000 C   0  0  0  0  0  0  0  0  0  0  0  0
   -1.3051   -2.2676   -0.0000 C   0  0  0  0  0  0  0  0  0  0  0  0
   -3.9806   -0.7831   -0.0000 C   0  0  0  0  0  0  0  0  0  0  0  0
   -2.6918    1.5172   -0.0000 C   0  0  0  0  0  0  0  0  0  0  0  0
   -2.6265   -3.0344   -0.0000 C   0  0  0  0  0  0  0  0  0  0  0  0
   -3.9806   -2.2839   -0.0000 C   0  0  0  0  0  0  0  0  0  0  0  0
   -4.0132    2.2676   -0.0000 N   0  0  0  0  0  0  0  0  0  0  0  0
   -5.3346   -3.0344   -0.0000 C   0  0  0  0  0  0  0  0  0  0  0  0
   -5.3346    1.5172   -0.0000 C   0  0  0  0  0  0  0  0  0  0  0  0
   -6.6560   -2.2839   -0.0000 C   0  0  0  0  0  0  0  0  0  0  0  0
   -5.3183   -4.5515   -0.0000 C   0  0  0  0  0  0  0  0  0  0  0  0
   -5.6283    2.9202   -0.0000 C   0  0  0  0  0  0  0  0  0  0  0  0
   -6.7050    2.1697   -0.0000 C   0  0  0  0  0  0  0  0  0  0  0  0
   -6.9823    3.5238   -0.0000 N   0  0  0  0  0  0  0  0  0  0  0  0
   -3.5727    4.1437   -0.0000 C   0  0  0  0  0  0  0  0  0  0  0  0
   -8.2385    1.5498   -0.0000 C   0  0  0  0  0  0  0  0  0  0  0  0
   -6.4766    4.0458   -0.0000 C   0  0  0  0  0  0  0  0  0  0  0  0
   -8.4505    2.9039   -0.0000 C   0  0  0  0  0  0  0  0  0  0  0  0
   -6.9334    5.1552   -0.0000 C   0  0  0  0  0  0  0  0  0  0  0  0
   -2.3655    3.4911   -0.0000 C   0  0  0  0  0  0  0  0  0  0  0  0
   -3.6053    5.5630   -0.0000 C   0  0  0  0  0  0  0  0  0  0  0  0
   -2.3655    2.1208   -0.0000 C   0  0  0  0  0  0  0  0  0  0  0  0
   -1.1909    4.2090   -0.0000 C   0  0  0  0  0  0  0  0  0  0  0  0
   -2.4308    6.2971   -0.0000 C   0  0  0  0  0  0  0  0  0  0  0  0
   -4.8452    6.2645   -0.0000 C   0  0  0  0  0  0  0  0  0  0  0  0
   -1.1746    1.4356   -0.0000 C   0  0  0  0  0  0  0  0  0  0  0  0
    0.0163    3.5401   -0.0000 C   0  0  0  0  0  0  0  0  0  0  0  0
   -2.4634    7.7001   -0.0000 C   0  0  0  0  0  0  0  0  0  0  0  0
   -4.8941    7.6675   -0.0000 C   0  0  0  0  0  0  0  0  0  0  0  0
    0.0163    2.1697   -0.0000 C   0  0  0  0  0  0  0  0  0  0  0  0
   -3.7032    8.4179   -0.0000 C   0  0  0  0  0  0  0  0  0  0  0  0
  1  2  1  0  0  0  0
  1  3  1  0  0  0  0
  2  4  2  0  0  0  0
  2  5  1  0  0  0  0
  4  6  1  0  0  0  0
  4  7  1  0  0  0  0
  5  8  2  0  0  0  0
  6  9  2  0  0  0  0
  7 10  1  0  0  0  0
  9 11  1  0  0  0  0
 12 10  1  1  0  0  0
 11 13  1  0  0  0  0
 11 14  1  0  0  0  0
 12 15  1  0  0  0  0
 12 16  1  0  0  0  0
 15 17  1  0  0  0  0
 15 18  1  1  0  0  0
 16 19  1  0  0  0  0
 16 20  1  0  0  0  0
 17 21  1  0  0  0  0
 17 22  1  0  0  0  0
 18 23  1  0  0  0  0
 18 24  1  0  0  0  0
 23 25  2  0  0  0  0
 23 26  1  0  0  0  0
 24 27  2  0  0  0  0
 24 28  1  0  0  0  0
 25 29  1  0  0  0  0
 26 30  2  0  0  0  0
 27 31  1  0  0  0  0
 28 32  2  0  0  0  0
 29 33  2  0  0  0  0
 31 34  2  0  0  0  0
  8  9  1  0  0  0  0
 19 21  1  0  0  0  0
 20 22  1  0  0  0  0
 30 33  1  0  0  0  0
 32 34  1  0  0  0  0
M  END
>  <MolRegNo>
489439

>  <m>
=

>  <Value>
420

>  <Unit>
nM

>  <Type>
Ki

>  <pValue>
6.38

>  <Ligand Efficiency>
0

>  <Binding Efficiency>
0

>  <Surface Efficiency>
0

>  <Assay Index>
363185

>  <Assay Category>


>  <Assay Organism>
Homo sapiens

>  <Target ID>
11365

>  <Target Name>
Cytochrome P450 2D6

>  <Target Organism>
Homo sapiens

>  <Target Description>
Target is a single protein chain

>  <Sequence Accession>
P10635

>  <Reference>
Bioorg Med Chem 16 (15), 7193-7205 (2008)

>  <Pubmed ID>
18640044

>  <DOI>
10.1016/j.bmc.2008.06.047

$$$$
561195
Actelion Java MolfileCreator 1.0

 25 28  0  0  0  0  0  0  0  0999 V2000
    0.0000   -0.0000   -0.0000 F   0  0  0  0  0  0  0  0  0  0  0  0
   -1.0173   -1.1001   -0.0000 C   0  0  0  0  0  0  0  0  0  0  0  0
   -2.4959   -0.7807   -0.0000 C   0  0  0  0  0  0  0  0  0  0  0  0
   -0.5678   -2.5195   -0.0000 C   0  0  0  0  0  0  0  0  0  0  0  0
   -3.5131   -1.8808   -0.0000 C   0  0  0  0  0  0  0  0  0  0  0  0
   -1.5850   -3.6196   -0.0000 C   0  0  0  0  0  0  0  0  0  0  0  0
   -3.0636   -3.3002   -0.0000 C   0  0  0  0  0  0  0  0  0  0  0  0
   -4.0809   -4.4003   -0.0000 C   0  0  0  0  0  0  0  0  0  0  0  0
   -3.6314   -5.8197   -0.0000 N   0  0  0  0  0  0  0  0  0  0  0  0
   -4.5304   -7.0263   -0.0000 C   0  0  0  0  0  0  0  0  0  0  0  0
   -2.2120   -6.2692   -0.0000 C   0  0  0  0  0  0  0  0  0  0  0  0
   -3.6551   -8.2328   -0.0000 N   0  0  0  0  0  0  0  0  0  0  0  0
   -6.0445   -7.0144   -0.0000 N   0  0  0  0  0  0  0  0  0  0  0  0
   -2.2238   -7.7596   -0.0000 C   0  0  0  0  0  0  0  0  0  0  0  0
   -0.9226   -5.5004   -0.0000 C   0  0  0  0  0  0  0  0  0  0  0  0
   -6.8015   -5.7014   -0.0000 C   0  0  0  0  0  0  0  0  0  0  0  0
   -6.8015   -8.3038   -0.0000 C   0  0  0  0  0  0  0  0  0  0  0  0
   -0.9345   -8.4930   -0.0000 C   0  0  0  0  0  0  0  0  0  0  0  0
    0.3667   -6.2456   -0.0000 C   0  0  0  0  0  0  0  0  0  0  0  0
   -8.3156   -5.6896   -0.0000 C   0  0  0  0  0  0  0  0  0  0  0  0
   -8.3156   -8.2919   -0.0000 C   0  0  0  0  0  0  0  0  0  0  0  0
    0.3549   -7.7360   -0.0000 C   0  0  0  0  0  0  0  0  0  0  0  0
   -9.0726   -6.9790   -0.0000 C   0  0  0  0  0  0  0  0  0  0  0  0
  -10.5867   -6.9671   -0.0000 N   0  0  0  0  0  0  0  0  0  0  0  0
  -11.3438   -8.2565   -0.0000 C   0  0  0  0  0  0  0  0  0  0  0  0
  1  2  1  0  0  0  0
  2  3  2  0  0  0  0
  2  4  1  0  0  0  0
  3  5  1  0  0  0  0
  4  6  2  0  0  0  0
  5  7  2  0  0  0  0
  7  8  1  0  0  0  0
  8  9  1  0  0  0  0
  9 10  1  0  0  0  0
  9 11  1  0  0  0  0
 10 12  2  0  0  0  0
 10 13  1  0  0  0  0
 11 14  2  0  0  0  0
 11 15  1  0  0  0  0
 13 16  1  0  0  0  0
 13 17  1  0  0  0  0
 14 18  1  0  0  0  0
 15 19  2  0  0  0  0
 16 20  1  0  0  0  0
 17 21  1  0  0  0  0
 18 22  2  0  0  0  0
 20 23  1  0  0  0  0
 23 24  1  0  0  0  0
 24 25  1  0  0  0  0
  6  7  1  0  0  0  0
 12 14  1  0  0  0  0
 19 22  1  0  0  0  0
 21 23  1  0  0  0  0
M  END
>  <MolRegNo>
561195

>  <m>
=

>  <Value>
6664

>  <Unit>
nM

>  <Type>
Ki

>  <pValue>
5.18

>  <Ligand Efficiency>
0

>  <Binding Efficiency>
0

>  <Surface Efficiency>
0

>  <Assay Index>
429822

>  <Assay Category>


>  <Assay Organism>


>  <Target ID>
11365

>  <Target Name>
Cytochrome P450 2D6

>  <Target Organism>
Homo sapiens

>  <Target Description>
Target is a single protein chain

>  <Sequence Accession>
P10635

>  <Reference>
Bioorg Med Chem Lett 19 (15), 4380-4384 (2009)

>  <Pubmed ID>
19553115

>  <DOI>
10.1016/j.bmcl.2009.05.086

$$$$
568304
Actelion Java MolfileCreator 1.0

 31 35  0  0  0  0  0  0  0  0999 V2000
    0.0000   -0.0000   -0.0000 F   0  0  0  0  0  0  0  0  0  0  0  0
   -1.0110    1.1168   -0.0000 C   0  0  0  0  0  0  0  0  0  0  0  0
   -0.5643    2.5509   -0.0000 C   0  0  0  0  0  0  0  0  0  0  0  0
   -2.4804    0.8229   -0.0000 C   0  0  0  0  0  0  0  0  0  0  0  0
   -1.5752    3.6677   -0.0000 C   0  0  0  0  0  0  0  0  0  0  0  0
   -3.4914    1.9396   -0.0000 C   0  0  0  0  0  0  0  0  0  0  0  0
   -3.0446    3.3738   -0.0000 C   0  0  0  0  0  0  0  0  0  0  0  0
   -4.0556    4.4906   -0.0000 C   0  0  0  0  0  0  0  0  0  0  0  0
   -3.6089    5.9247   -0.0000 N   0  0  0  0  0  0  0  0  0  0  0  0
   -4.5023    7.1473   -0.0000 C   0  0  0  0  0  0  0  0  0  0  0  0
   -2.1983    6.3949   -0.0000 C   0  0  0  0  0  0  0  0  0  0  0  0
   -3.6324    8.3698   -0.0000 N   0  0  0  0  0  0  0  0  0  0  0  0
   -6.0070    7.1590   -0.0000 N   0  0  0  0  0  0  0  0  0  0  0  0
   -2.2100    7.8996   -0.0000 C   0  0  0  0  0  0  0  0  0  0  0  0
   -0.9169    5.6543   -0.0000 C   0  0  0  0  0  0  0  0  0  0  0  0
   -6.7711    5.8777   -0.0000 C   0  0  0  0  0  0  0  0  0  0  0  0
   -6.7711    8.4639   -0.0000 C   0  0  0  0  0  0  0  0  0  0  0  0
   -0.9287    8.6637   -0.0000 C   0  0  0  0  0  0  0  0  0  0  0  0
    0.3644    6.4184   -0.0000 C   0  0  0  0  0  0  0  0  0  0  0  0
   -8.2758    5.8895   -0.0000 C   0  0  0  0  0  0  0  0  0  0  0  0
   -8.2758    8.4756   -0.0000 C   0  0  0  0  0  0  0  0  0  0  0  0
    0.3527    7.9231   -0.0000 C   0  0  0  0  0  0  0  0  0  0  0  0
   -9.0281    7.1943   -0.0000 C   0  0  0  0  0  0  0  0  0  0  0  0
  -10.5328    7.2061   -0.0000 N   0  0  0  0  0  0  0  0  0  0  0  0
  -11.2852    8.5109   -0.0000 C   0  0  0  0  0  0  0  0  0  0  0  0
  -11.2852    5.9247   -0.0000 C   0  0  0  0  0  0  0  0  0  0  0  0
  -12.7899    8.5227   -0.0000 C   0  0  0  0  0  0  0  0  0  0  0  0
  -10.5563    9.8158   -0.0000 C   0  0  0  0  0  0  0  0  0  0  0  0
  -13.5422    9.8275   -0.0000 C   0  0  0  0  0  0  0  0  0  0  0  0
  -11.3087   11.1206   -0.0000 C   0  0  0  0  0  0  0  0  0  0  0  0
  -12.8134   11.1324   -0.0000 C   0  0  0  0  0  0  0  0  0  0  0  0
  1  2  1  0  0  0  0
  2  3  2  0  0  0  0
  2  4  1  0  0  0  0
  3  5  1  0  0  0  0
  4  6  2  0  0  0  0
  5  7  2  0  0  0  0
  7  8  1  0  0  0  0
  8  9  1  0  0  0  0
  9 10  1  0  0  0  0
  9 11  1  0  0  0  0
 10 12  2  0  0  0  0
 10 13  1  0  0  0  0
 11 14  2  0  0  0  0
 11 15  1  0  0  0  0
 13 16  1  0  0  0  0
 13 17  1  0  0  0  0
 14 18  1  0  0  0  0
 15 19  2  0  0  0  0
 16 20  1  0  0  0  0
 17 21  1  0  0  0  0
 18 22  2  0  0  0  0
 20 23  1  0  0  0  0
 23 24  1  0  0  0  0
 24 25  1  0  0  0  0
 24 26  1  0  0  0  0
 25 27  1  0  0  0  0
 25 28  1  0  0  0  0
 27 29  1  0  0  0  0
 28 30  1  0  0  0  0
 29 31  1  0  0  0  0
  6  7  1  0  0  0  0
 12 14  1  0  0  0  0
 19 22  1  0  0  0  0
 21 23  1  0  0  0  0
 30 31  1  0  0  0  0
M  END
>  <MolRegNo>
568304

>  <m>
=

>  <Value>
2053

>  <Unit>
nM

>  <Type>
Ki

>  <pValue>
5.69

>  <Ligand Efficiency>
0

>  <Binding Efficiency>
0

>  <Surface Efficiency>
0

>  <Assay Index>
429822

>  <Assay Category>


>  <Assay Organism>


>  <Target ID>
11365

>  <Target Name>
Cytochrome P450 2D6

>  <Target Organism>
Homo sapiens

>  <Target Description>
Target is a single protein chain

>  <Sequence Accession>
P10635

>  <Reference>
Bioorg Med Chem Lett 19 (15), 4380-4384 (2009)

>  <Pubmed ID>
19553115

>  <DOI>
10.1016/j.bmcl.2009.05.086

$$$$
557636
Actelion Java MolfileCreator 1.0

 33 37  0  0  0  0  0  0  0  0999 V2000
    0.0000   -0.0000   -0.0000 F   0  0  0  0  0  0  0  0  0  0  0  0
   -1.0112    1.1170   -0.0000 C   0  0  0  0  0  0  0  0  0  0  0  0
   -0.5644    2.5515   -0.0000 C   0  0  0  0  0  0  0  0  0  0  0  0
   -2.4810    0.8231   -0.0000 C   0  0  0  0  0  0  0  0  0  0  0  0
   -1.5756    3.6685   -0.0000 C   0  0  0  0  0  0  0  0  0  0  0  0
   -3.4922    1.9401   -0.0000 C   0  0  0  0  0  0  0  0  0  0  0  0
   -3.0453    3.3746   -0.0000 C   0  0  0  0  0  0  0  0  0  0  0  0
   -4.0565    4.4916   -0.0000 C   0  0  0  0  0  0  0  0  0  0  0  0
   -3.6097    5.9261   -0.0000 N   0  0  0  0  0  0  0  0  0  0  0  0
   -4.5034    7.1489   -0.0000 C   0  0  0  0  0  0  0  0  0  0  0  0
   -2.1988    6.3964   -0.0000 C   0  0  0  0  0  0  0  0  0  0  0  0
   -3.6333    8.3718   -0.0000 N   0  0  0  0  0  0  0  0  0  0  0  0
   -6.0084    7.1607   -0.0000 N   0  0  0  0  0  0  0  0  0  0  0  0
   -2.2105    7.9014   -0.0000 C   0  0  0  0  0  0  0  0  0  0  0  0
   -0.9171    5.6556   -0.0000 C   0  0  0  0  0  0  0  0  0  0  0  0
   -6.7609    5.8790   -0.0000 C   0  0  0  0  0  0  0  0  0  0  0  0
   -6.7609    8.4658   -0.0000 C   0  0  0  0  0  0  0  0  0  0  0  0
   -0.9289    8.6540   -0.0000 C   0  0  0  0  0  0  0  0  0  0  0  0
    0.3645    6.4199   -0.0000 C   0  0  0  0  0  0  0  0  0  0  0  0
   -8.2659    5.8908   -0.0000 C   0  0  0  0  0  0  0  0  0  0  0  0
   -8.2659    8.4776   -0.0000 C   0  0  0  0  0  0  0  0  0  0  0  0
    0.3527    7.9250   -0.0000 C   0  0  0  0  0  0  0  0  0  0  0  0
   -9.0185    7.1960   -0.0000 C   0  0  0  0  0  0  0  0  0  0  0  0
  -10.5235    7.2077   -0.0000 N   0  0  0  0  0  0  0  0  0  0  0  0
  -11.2760    8.5129   -0.0000 C   0  0  0  0  0  0  0  0  0  0  0  0
  -11.2760    5.9261   -0.0000 C   0  0  0  0  0  0  0  0  0  0  0  0
  -12.7811    8.5246   -0.0000 C   0  0  0  0  0  0  0  0  0  0  0  0
  -13.5336    9.8298   -0.0000 C   0  0  0  0  0  0  0  0  0  0  0  0
  -15.0386    9.8415   -0.0000 C   0  0  0  0  0  0  0  0  0  0  0  0
  -12.8046   11.1349   -0.0000 C   0  0  0  0  0  0  0  0  0  0  0  0
  -15.7911   11.1467   -0.0000 C   0  0  0  0  0  0  0  0  0  0  0  0
  -13.5571   12.4401   -0.0000 C   0  0  0  0  0  0  0  0  0  0  0  0
  -15.0621   12.4518   -0.0000 C   0  0  0  0  0  0  0  0  0  0  0  0
  1  2  1  0  0  0  0
  2  3  2  0  0  0  0
  2  4  1  0  0  0  0
  3  5  1  0  0  0  0
  4  6  2  0  0  0  0
  5  7  2  0  0  0  0
  7  8  1  0  0  0  0
  8  9  1  0  0  0  0
  9 10  1  0  0  0  0
  9 11  1  0  0  0  0
 10 12  2  0  0  0  0
 10 13  1  0  0  0  0
 11 14  2  0  0  0  0
 11 15  1  0  0  0  0
 13 16  1  0  0  0  0
 13 17  1  0  0  0  0
 14 18  1  0  0  0  0
 15 19  2  0  0  0  0
 16 20  1  0  0  0  0
 17 21  1  0  0  0  0
 18 22  2  0  0  0  0
 20 23  1  0  0  0  0
 23 24  1  0  0  0  0
 24 25  1  0  0  0  0
 24 26  1  0  0  0  0
 25 27  1  0  0  0  0
 27 28  1  0  0  0  0
 28 29  2  0  0  0  0
 28 30  1  0  0  0  0
 29 31  1  0  0  0  0
 30 32  2  0  0  0  0
 31 33  2  0  0  0  0
  6  7  1  0  0  0  0
 12 14  1  0  0  0  0
 19 22  1  0  0  0  0
 21 23  1  0  0  0  0
 32 33  1  0  0  0  0
M  END
>  <MolRegNo>
557636

>  <m>
=

>  <Value>
502

>  <Unit>
nM

>  <Type>
Ki

>  <pValue>
6.3

>  <Ligand Efficiency>
0

>  <Binding Efficiency>
0

>  <Surface Efficiency>
0

>  <Assay Index>
429822

>  <Assay Category>


>  <Assay Organism>


>  <Target ID>
11365

>  <Target Name>
Cytochrome P450 2D6

>  <Target Organism>
Homo sapiens

>  <Target Description>
Target is a single protein chain

>  <Sequence Accession>
P10635

>  <Reference>
Bioorg Med Chem Lett 19 (15), 4380-4384 (2009)

>  <Pubmed ID>
19553115

>  <DOI>
10.1016/j.bmcl.2009.05.086

$$$$
562938
Actelion Java MolfileCreator 1.0

 32 36  0  0  0  0  0  0  0  0999 V2000
    0.0000   -0.0000   -0.0000 F   0  0  0  0  0  0  0  0  0  0  0  0
   -1.0112    1.1170   -0.0000 C   0  0  0  0  0  0  0  0  0  0  0  0
   -0.5644    2.5515   -0.0000 C   0  0  0  0  0  0  0  0  0  0  0  0
   -2.4810    0.8231   -0.0000 C   0  0  0  0  0  0  0  0  0  0  0  0
   -1.5756    3.6685   -0.0000 C   0  0  0  0  0  0  0  0  0  0  0  0
   -3.4922    1.9401   -0.0000 C   0  0  0  0  0  0  0  0  0  0  0  0
   -3.0454    3.3746   -0.0000 C   0  0  0  0  0  0  0  0  0  0  0  0
   -4.0566    4.4916   -0.0000 C   0  0  0  0  0  0  0  0  0  0  0  0
   -3.6097    5.9261   -0.0000 N   0  0  0  0  0  0  0  0  0  0  0  0
   -4.5034    7.1490   -0.0000 C   0  0  0  0  0  0  0  0  0  0  0  0
   -2.1988    6.3964   -0.0000 C   0  0  0  0  0  0  0  0  0  0  0  0
   -3.6333    8.3718   -0.0000 N   0  0  0  0  0  0  0  0  0  0  0  0
   -6.0084    7.1607   -0.0000 N   0  0  0  0  0  0  0  0  0  0  0  0
   -2.2105    7.9015   -0.0000 C   0  0  0  0  0  0  0  0  0  0  0  0
   -0.9171    5.6674   -0.0000 C   0  0  0  0  0  0  0  0  0  0  0  0
   -6.7727    5.8791   -0.0000 C   0  0  0  0  0  0  0  0  0  0  0  0
   -6.7727    8.4659   -0.0000 C   0  0  0  0  0  0  0  0  0  0  0  0
   -0.9289    8.6658   -0.0000 C   0  0  0  0  0  0  0  0  0  0  0  0
    0.3645    6.4199   -0.0000 C   0  0  0  0  0  0  0  0  0  0  0  0
   -8.2777    5.8908   -0.0000 C   0  0  0  0  0  0  0  0  0  0  0  0
   -8.2777    8.4776   -0.0000 C   0  0  0  0  0  0  0  0  0  0  0  0
    0.3527    7.9250   -0.0000 C   0  0  0  0  0  0  0  0  0  0  0  0
   -9.0420    7.1960   -0.0000 C   0  0  0  0  0  0  0  0  0  0  0  0
  -10.5471    7.2077   -0.0000 N   0  0  0  0  0  0  0  0  0  0  0  0
  -11.2996    5.9261   -0.0000 C   0  0  0  0  0  0  0  0  0  0  0  0
  -11.2996    8.5129   -0.0000 C   0  0  0  0  0  0  0  0  0  0  0  0
  -12.8046    5.9379   -0.0000 C   0  0  0  0  0  0  0  0  0  0  0  0
  -13.5571    4.6562   -0.0000 C   0  0  0  0  0  0  0  0  0  0  0  0
  -13.5571    7.2430   -0.0000 C   0  0  0  0  0  0  0  0  0  0  0  0
  -15.0622    4.6680   -0.0000 C   0  0  0  0  0  0  0  0  0  0  0  0
  -15.0622    7.2548   -0.0000 C   0  0  0  0  0  0  0  0  0  0  0  0
  -15.8147    5.9731   -0.0000 C   0  0  0  0  0  0  0  0  0  0  0  0
  1  2  1  0  0  0  0
  2  3  2  0  0  0  0
  2  4  1  0  0  0  0
  3  5  1  0  0  0  0
  4  6  2  0  0  0  0
  5  7  2  0  0  0  0
  7  8  1  0  0  0  0
  8  9  1  0  0  0  0
  9 10  1  0  0  0  0
  9 11  1  0  0  0  0
 10 12  2  0  0  0  0
 10 13  1  0  0  0  0
 11 14  2  0  0  0  0
 11 15  1  0  0  0  0
 13 16  1  0  0  0  0
 13 17  1  0  0  0  0
 14 18  1  0  0  0  0
 15 19  2  0  0  0  0
 16 20  1  0  0  0  0
 17 21  1  0  0  0  0
 18 22  2  0  0  0  0
 20 23  1  0  0  0  0
 23 24  1  0  0  0  0
 24 25  1  0  0  0  0
 24 26  1  0  0  0  0
 25 27  1  0  0  0  0
 27 28  2  0  0  0  0
 27 29  1  0  0  0  0
 28 30  1  0  0  0  0
 29 31  2  0  0  0  0
 30 32  2  0  0  0  0
  6  7  1  0  0  0  0
 12 14  1  0  0  0  0
 19 22  1  0  0  0  0
 21 23  1  0  0  0  0
 31 32  1  0  0  0  0
M  END
>  <MolRegNo>
562938

>  <m>
=

>  <Value>
805

>  <Unit>
nM

>  <Type>
Ki

>  <pValue>
6.09

>  <Ligand Efficiency>
0

>  <Binding Efficiency>
0

>  <Surface Efficiency>
0

>  <Assay Index>
429822

>  <Assay Category>


>  <Assay Organism>


>  <Target ID>
11365

>  <Target Name>
Cytochrome P450 2D6

>  <Target Organism>
Homo sapiens

>  <Target Description>
Target is a single protein chain

>  <Sequence Accession>
P10635

>  <Reference>
Bioorg Med Chem Lett 19 (15), 4380-4384 (2009)

>  <Pubmed ID>
19553115

>  <DOI>
10.1016/j.bmcl.2009.05.086

$$$$
555914
Actelion Java MolfileCreator 1.0

 31 35  0  0  0  0  0  0  0  0999 V2000
    0.0000   -0.0000   -0.0000 F   0  0  0  0  0  0  0  0  0  0  0  0
   -1.0110    1.1168   -0.0000 C   0  0  0  0  0  0  0  0  0  0  0  0
   -0.5643    2.5509   -0.0000 C   0  0  0  0  0  0  0  0  0  0  0  0
   -2.4804    0.8229   -0.0000 C   0  0  0  0  0  0  0  0  0  0  0  0
   -1.5752    3.6677   -0.0000 C   0  0  0  0  0  0  0  0  0  0  0  0
   -3.4914    1.9397   -0.0000 C   0  0  0  0  0  0  0  0  0  0  0  0
   -3.0447    3.3738   -0.0000 C   0  0  0  0  0  0  0  0  0  0  0  0
   -4.0556    4.4906   -0.0000 C   0  0  0  0  0  0  0  0  0  0  0  0
   -3.6089    5.9248   -0.0000 N   0  0  0  0  0  0  0  0  0  0  0  0
   -4.5023    7.1473   -0.0000 C   0  0  0  0  0  0  0  0  0  0  0  0
   -2.1983    6.3950   -0.0000 C   0  0  0  0  0  0  0  0  0  0  0  0
   -3.6324    8.3699   -0.0000 N   0  0  0  0  0  0  0  0  0  0  0  0
   -6.0070    7.1591   -0.0000 N   0  0  0  0  0  0  0  0  0  0  0  0
   -2.2100    7.8997   -0.0000 C   0  0  0  0  0  0  0  0  0  0  0  0
   -0.9169    5.6544   -0.0000 C   0  0  0  0  0  0  0  0  0  0  0  0
   -6.7594    5.8777   -0.0000 C   0  0  0  0  0  0  0  0  0  0  0  0
   -6.7594    8.4639   -0.0000 C   0  0  0  0  0  0  0  0  0  0  0  0
   -0.9287    8.6520   -0.0000 C   0  0  0  0  0  0  0  0  0  0  0  0
    0.3644    6.4067   -0.0000 C   0  0  0  0  0  0  0  0  0  0  0  0
   -8.2641    5.8895   -0.0000 C   0  0  0  0  0  0  0  0  0  0  0  0
   -8.2641    8.4757   -0.0000 C   0  0  0  0  0  0  0  0  0  0  0  0
    0.3527    7.9114   -0.0000 C   0  0  0  0  0  0  0  0  0  0  0  0
   -9.0164    7.1943   -0.0000 C   0  0  0  0  0  0  0  0  0  0  0  0
  -10.5211    7.2061   -0.0000 N   0  0  0  0  0  0  0  0  0  0  0  0
  -11.2852    8.5110   -0.0000 C   0  0  0  0  0  0  0  0  0  0  0  0
  -11.2852    5.9248   -0.0000 C   0  0  0  0  0  0  0  0  0  0  0  0
  -12.7899    8.5227   -0.0000 N   0  0  0  0  0  0  0  0  0  0  0  0
  -10.5446    9.8158   -0.0000 N   0  0  0  0  0  0  0  0  0  0  0  0
  -13.5423    9.8276   -0.0000 C   0  0  0  0  0  0  0  0  0  0  0  0
  -11.3087   11.1207   -0.0000 C   0  0  0  0  0  0  0  0  0  0  0  0
  -12.8134   11.1324   -0.0000 C   0  0  0  0  0  0  0  0  0  0  0  0
  1  2  1  0  0  0  0
  2  3  2  0  0  0  0
  2  4  1  0  0  0  0
  3  5  1  0  0  0  0
  4  6  2  0  0  0  0
  5  7  2  0  0  0  0
  7  8  1  0  0  0  0
  8  9  1  0  0  0  0
  9 10  1  0  0  0  0
  9 11  1  0  0  0  0
 10 12  2  0  0  0  0
 10 13  1  0  0  0  0
 11 14  2  0  0  0  0
 11 15  1  0  0  0  0
 13 16  1  0  0  0  0
 13 17  1  0  0  0  0
 14 18  1  0  0  0  0
 15 19  2  0  0  0  0
 16 20  1  0  0  0  0
 17 21  1  0  0  0  0
 18 22  2  0  0  0  0
 20 23  1  0  0  0  0
 23 24  1  0  0  0  0
 24 25  1  0  0  0  0
 24 26  1  0  0  0  0
 25 27  2  0  0  0  0
 25 28  1  0  0  0  0
 27 29  1  0  0  0  0
 28 30  2  0  0  0  0
 29 31  2  0  0  0  0
  6  7  1  0  0  0  0
 12 14  1  0  0  0  0
 19 22  1  0  0  0  0
 21 23  1  0  0  0  0
 30 31  1  0  0  0  0
M  END
>  <MolRegNo>
555914

>  <m>
=

>  <Value>
1036

>  <Unit>
nM

>  <Type>
Ki

>  <pValue>
5.99

>  <Ligand Efficiency>
0

>  <Binding Efficiency>
0

>  <Surface Efficiency>
0

>  <Assay Index>
429822

>  <Assay Category>


>  <Assay Organism>


>  <Target ID>
11365

>  <Target Name>
Cytochrome P450 2D6

>  <Target Organism>
Homo sapiens

>  <Target Description>
Target is a single protein chain

>  <Sequence Accession>
P10635

>  <Reference>
Bioorg Med Chem Lett 19 (15), 4380-4384 (2009)

>  <Pubmed ID>
19553115

>  <DOI>
10.1016/j.bmcl.2009.05.086

$$$$
620004
Actelion Java MolfileCreator 1.0

 22 24  0  0  0  0  0  0  0  0999 V2000
    0.0000   -0.0000   -0.0000 S   0  0  0  0  0  0  0  0  0  0  0  0
   -1.4533   -0.4527   -0.0000 C   0  0  0  0  0  0  0  0  0  0  0  0
    0.8815   -1.2031   -0.0000 C   0  0  0  0  0  0  0  0  0  0  0  0
   -1.4652   -1.9536   -0.0000 C   0  0  0  0  0  0  0  0  0  0  0  0
   -2.7637    0.2978   -0.0000 C   0  0  0  0  0  0  0  0  0  0  0  0
   -0.0119   -2.4182   -0.0000 C   0  0  0  0  0  0  0  0  0  0  0  0
    2.3706   -1.1793   -0.0000 C   0  0  0  0  0  0  0  0  0  0  0  0
   -2.7756   -2.6922   -0.0000 C   0  0  0  0  0  0  0  0  0  0  0  0
   -4.0740   -0.4408   -0.0000 C   0  0  0  0  0  0  0  0  0  0  0  0
    0.4527   -3.8239   -0.0000 C   0  0  0  0  0  0  0  0  0  0  0  0
    3.1210   -2.4659   -0.0000 C   0  0  0  0  0  0  0  0  0  0  0  0
   -4.0859   -1.9298   -0.0000 C   0  0  0  0  0  0  0  0  0  0  0  0
   -0.8577   -4.5624   -0.0000 C   0  0  0  0  0  0  0  0  0  0  0  0
    1.9060   -4.1098   -0.0000 C   0  0  0  0  0  0  0  0  0  0  0  0
    4.6101   -2.4420   -0.0000 N   0  0  0  0  0  0  0  0  0  0  0  0
   -2.1680   -3.8000   -0.0000 C   0  0  0  0  0  0  0  0  0  0  0  0
   -0.8577   -6.0396   -0.0000 C   0  0  0  0  0  0  0  0  0  0  0  0
    5.3486   -3.7286   -0.0000 C   0  0  0  0  0  0  0  0  0  0  0  0
    5.3367   -1.1317   -0.0000 C   0  0  0  0  0  0  0  0  0  0  0  0
   -3.4784   -4.5386   -0.0000 C   0  0  0  0  0  0  0  0  0  0  0  0
   -2.1561   -6.7900   -0.0000 C   0  0  0  0  0  0  0  0  0  0  0  0
   -3.4784   -6.0277   -0.0000 N   0  0  0  0  0  0  0  0  0  0  0  0
  1  2  1  0  0  0  0
  1  3  1  0  0  0  0
  2  4  2  0  0  0  0
  2  5  1  0  0  0  0
  3  6  2  0  0  0  0
  3  7  1  0  0  0  0
  4  8  1  0  0  0  0
  5  9  2  0  0  0  0
  6 10  1  0  0  0  0
  7 11  1  0  0  0  0
  8 12  2  0  0  0  0
 10 13  1  0  0  0  0
 10 14  1  0  0  0  0
 11 15  1  0  0  0  0
 13 16  2  0  0  0  0
 13 17  1  0  0  0  0
 15 18  1  0  0  0  0
 15 19  1  0  0  0  0
 16 20  1  0  0  0  0
 17 21  2  0  0  0  0
 20 22  2  0  0  0  0
  4  6  1  0  0  0  0
  9 12  1  0  0  0  0
 21 22  1  0  0  0  0
M  END
>  <MolRegNo>
620004

>  <m>
=

>  <Value>
850

>  <Unit>
nM

>  <Type>
Ki

>  <pValue>
6.07

>  <Ligand Efficiency>
0

>  <Binding Efficiency>
0

>  <Surface Efficiency>
0

>  <Assay Index>
469728

>  <Assay Category>


>  <Assay Organism>


>  <Target ID>
11365

>  <Target Name>
Cytochrome P450 2D6

>  <Target Organism>
Homo sapiens

>  <Target Description>
Target is a single protein chain

>  <Sequence Accession>
P10635

>  <Reference>
Bioorg Med Chem Lett 20 (7), 2316-2320 (2010)

>  <Pubmed ID>
20188547

>  <DOI>
10.1016/j.bmcl.2010.01.134

$$$$
1355728
Actelion Java MolfileCreator 1.0

 48 53  0  0  1  0  0  0  0  0999 V2000
    0.0000   -0.0000   -0.0000 O   0  0  0  0  0  0  0  0  0  0  0  0
   -1.3014    0.7641   -0.0000 C   0  0  0  0  0  0  0  0  0  0  0  0
   -2.6267    0.0597   -0.0000 N   0  0  0  0  0  0  0  0  0  0  0  0
   -1.2895    2.2805   -0.0000 C   0  0  0  0  0  0  0  0  0  0  0  0
   -2.6506   -1.4328   -0.0000 C   0  0  0  0  0  0  0  0  0  0  0  0
    0.0000    3.0446   -0.0000 N   0  0  0  0  0  0  0  0  0  0  0  0
   -2.6028    3.0446   -0.0000 C   0  0  0  0  0  0  0  0  0  0  0  0
   -2.6864   -2.9252   -0.0000 C   0  0  0  0  0  0  0  0  0  0  0  0
   -3.9759   -2.1611   -0.0000 C   0  0  0  0  0  0  0  0  0  0  0  0
   -1.3611   -2.1969   -0.0000 C   0  0  0  0  0  0  0  0  0  0  0  0
   -0.0119    4.5609   -0.0000 C   0  0  0  0  0  0  0  0  0  0  0  0
    1.3014    2.3043   -0.0000 C   0  0  0  0  0  0  0  0  0  0  0  0
   -2.6148    4.5609   -0.0000 N   0  0  0  0  0  0  0  0  0  0  0  0
   -1.3253    5.3251   -0.0000 C   0  0  0  0  0  0  0  0  0  0  0  0
    2.5909    3.0685   -0.0000 C   0  0  0  0  0  0  0  0  0  0  0  0
   -3.9281    5.3251   -0.0000 C   0  0  0  0  0  0  0  0  0  0  0  0
    2.5551    4.5848   -0.0000 O   0  0  0  0  0  0  0  0  0  0  0  0
    3.8804    2.3282   -0.0000 C   0  0  0  0  0  0  0  0  0  0  0  0
   -5.2415    4.5609   -0.0000 C   0  0  0  0  0  0  0  0  0  0  0  0
    5.1698    3.0924   -0.0000 C   0  0  0  0  0  0  0  0  0  0  0  0
   -5.2534    3.0565   -0.0000 C   0  0  0  0  0  0  0  0  0  0  0  0
   -6.5548    5.3251   -0.0000 C   0  0  0  0  0  0  0  0  0  0  0  0
    6.4593    2.3640   -0.0000 C   0  0  0  0  0  0  0  0  0  0  0  0
    5.1340    4.6087   -0.0000 C   0  0  0  0  0  0  0  0  0  0  0  0
   -6.5668    2.3163   -0.0000 N   0  0  0  0  0  0  0  0  0  0  0  0
   -7.8682    4.5848   -0.0000 C   0  0  0  0  0  0  0  0  0  0  0  0
    6.4474    0.8716   -0.0000 O   0  0  0  0  0  0  0  0  0  0  0  0
    7.7488    3.1282   -0.0000 N   0  0  0  0  0  0  0  0  0  0  0  0
    5.8743    5.9340   -0.0000 C   0  0  0  0  0  0  0  0  0  0  0  0
   -7.8801    3.0804   -0.0000 C   0  0  0  0  0  0  0  0  0  0  0  0
   -9.3248    5.0624   -0.0000 C   0  0  0  0  0  0  0  0  0  0  0  0
    9.0383    2.3879   -0.0000 C   0  0  0  0  0  0  0  0  0  0  0  0
    5.0982    7.2354   -0.0000 C   0  0  0  0  0  0  0  0  0  0  0  0
    7.3548    5.9459   -0.0000 C   0  0  0  0  0  0  0  0  0  0  0  0
   -9.3368    2.6267   -0.0000 O   0  0  0  0  0  0  0  0  0  0  0  0
  -10.2203    3.8565   -0.0000 C   0  0  0  0  0  0  0  0  0  0  0  0
    9.1816    0.9313   -0.0000 C   0  0  0  0  0  0  0  0  0  0  0  0
   10.3755    3.0207   -0.0000 C   0  0  0  0  0  0  0  0  0  0  0  0
    5.8146    8.5607   -0.0000 C   0  0  0  0  0  0  0  0  0  0  0  0
    8.0712    7.2712   -0.0000 C   0  0  0  0  0  0  0  0  0  0  0  0
   10.6143    0.6328   -0.0000 C   0  0  0  0  0  0  0  0  0  0  0  0
    8.1667   -0.1552   -0.0000 C   0  0  0  0  0  0  0  0  0  0  0  0
   10.7456    4.4893   -0.0000 O   0  0  0  0  0  0  0  0  0  0  0  0
   11.3665    1.9342   -0.0000 C   0  0  0  0  0  0  0  0  0  0  0  0
    7.3070    8.5726   -0.0000 C   0  0  0  0  0  0  0  0  0  0  0  0
   11.0680   -0.7403   -0.0000 C   0  0  0  0  0  0  0  0  0  0  0  0
    8.6204   -1.5283   -0.0000 C   0  0  0  0  0  0  0  0  0  0  0  0
   10.0651   -1.8268   -0.0000 C   0  0  0  0  0  0  0  0  0  0  0  0
  1  2  2  0  0  0  0
  2  3  1  0  0  0  0
  4  2  1  6  0  0  0
  3  5  1  0  0  0  0
  4  6  1  0  0  0  0
  4  7  1  0  0  0  0
  5  8  1  0  0  0  0
  5  9  1  0  0  0  0
  5 10  1  0  0  0  0
  6 11  1  0  0  0  0
  6 12  1  0  0  0  0
  7 13  1  0  0  0  0
 11 14  1  0  0  0  0
 12 15  1  0  0  0  0
 13 16  1  0  0  0  0
 15 17  1  1  0  0  0
 15 18  1  0  0  0  0
 16 19  1  0  0  0  0
 20 18  1  1  0  0  0
 19 21  2  0  0  0  0
 19 22  1  0  0  0  0
 20 23  1  0  0  0  0
 20 24  1  0  0  0  0
 21 25  1  0  0  0  0
 22 26  2  0  0  0  0
 23 27  2  0  0  0  0
 23 28  1  0  0  0  0
 24 29  1  0  0  0  0
 25 30  2  0  0  0  0
 26 31  1  0  0  0  0
 32 28  1  6  0  0  0
 29 33  2  0  0  0  0
 29 34  1  0  0  0  0
 30 35  1  0  0  0  0
 31 36  2  0  0  0  0
 32 37  1  0  0  0  0
 32 38  1  0  0  0  0
 33 39  1  0  0  0  0
 34 40  2  0  0  0  0
 37 41  2  0  0  0  0
 37 42  1  0  0  0  0
 38 43  1  6  0  0  0
 38 44  1  0  0  0  0
 39 45  2  0  0  0  0
 41 46  1  0  0  0  0
 42 47  2  0  0  0  0
 46 48  2  0  0  0  0
 13 14  1  0  0  0  0
 26 30  1  0  0  0  0
 35 36  1  0  0  0  0
 40 45  1  0  0  0  0
 41 44  1  0  0  0  0
 47 48  1  0  0  0  0
M  END
>  <MolRegNo>
1355728

>  <m>
=

>  <Value>
32000

>  <Unit>
nM

>  <Type>
Ki

>  <pValue>
4.5

>  <Ligand Efficiency>
0

>  <Binding Efficiency>
0

>  <Surface Efficiency>
0

>  <Assay Index>
581909

>  <Assay Category>


>  <Assay Organism>
Homo sapiens

>  <Target ID>
11365

>  <Target Name>
Cytochrome P450 2D6

>  <Target Organism>
Homo sapiens

>  <Target Description>
Target is a single protein chain

>  <Sequence Accession>
P10635

>  <Reference>
Curr Drug Metab 6 (1), 413-454 (2005)

>  <Pubmed ID>
16248836

>  <DOI>
10.2174/138920005774330639

$$$$
1122139
Actelion Java MolfileCreator 1.0

 26 28  0  0  0  0  0  0  0  0999 V2000
    0.0000   -0.0000   -0.0000 S   0  0  0  0  0  0  0  0  0  0  0  0
    1.0479    1.0715   -0.0000 O   0  0  0  0  0  0  0  0  0  0  0  0
    1.2834   -0.7418   -0.0000 O   0  0  0  0  0  0  0  0  0  0  0  0
   -1.5071    0.0118   -0.0000 N   0  0  0  0  0  0  0  0  0  0  0  0
   -0.4003   -1.4365   -0.0000 C   0  0  0  0  0  0  0  0  0  0  0  0
   -2.2607   -1.2716   -0.0000 C   0  0  0  0  0  0  0  0  0  0  0  0
   -2.2607    1.3187   -0.0000 C   0  0  0  0  0  0  0  0  0  0  0  0
   -3.7678   -1.2598   -0.0000 C   0  0  0  0  0  0  0  0  0  0  0  0
   -3.7678    1.3305   -0.0000 C   0  0  0  0  0  0  0  0  0  0  0  0
   -4.5213    0.0471   -0.0000 C   0  0  0  0  0  0  0  0  0  0  0  0
   -6.0284    0.0589   -0.0000 C   0  0  0  0  0  0  0  0  0  0  0  0
   -6.7820    1.3658   -0.0000 N   0  0  0  0  0  0  0  0  0  0  0  0
   -8.2891    1.3776   -0.0000 C   0  0  0  0  0  0  0  0  0  0  0  0
   -6.0402    2.6728   -0.0000 C   0  0  0  0  0  0  0  0  0  0  0  0
   -9.5960    2.1429   -0.0000 C   0  0  0  0  0  0  0  0  0  0  0  0
   -8.6894   -0.0589   -0.0000 C   0  0  0  0  0  0  0  0  0  0  0  0
   -4.5566    2.6845   -0.0000 C   0  0  0  0  0  0  0  0  0  0  0  0
  -10.9030    1.4011   -0.0000 C   0  0  0  0  0  0  0  0  0  0  0  0
  -12.2099    2.1665   -0.0000 C   0  0  0  0  0  0  0  0  0  0  0  0
  -10.9147   -0.0824   -0.0000 C   0  0  0  0  0  0  0  0  0  0  0  0
  -13.5168    1.4247   -0.0000 C   0  0  0  0  0  0  0  0  0  0  0  0
  -12.2217   -0.8124   -0.0000 C   0  0  0  0  0  0  0  0  0  0  0  0
  -13.5286   -0.0589   -0.0000 C   0  0  0  0  0  0  0  0  0  0  0  0
  -14.9533    1.8957   -0.0000 C   0  0  0  0  0  0  0  0  0  0  0  0
  -14.9651   -0.5063   -0.0000 O   0  0  0  0  0  0  0  0  0  0  0  0
  -15.8481    0.6947   -0.0000 C   0  0  0  0  0  0  0  0  0  0  0  0
  1  2  2  0  0  0  0
  1  3  2  0  0  0  0
  1  4  1  0  0  0  0
  1  5  1  0  0  0  0
  4  6  1  0  0  0  0
  4  7  1  0  0  0  0
  6  8  1  0  0  0  0
  7  9  1  0  0  0  0
  8 10  1  0  0  0  0
 10 11  1  0  0  0  0
 11 12  1  0  0  0  0
 13 12  1  1  0  0  0
 12 14  1  0  0  0  0
 13 15  1  0  0  0  0
 13 16  1  0  0  0  0
 14 17  1  0  0  0  0
 15 18  1  0  0  0  0
 18 19  2  0  0  0  0
 18 20  1  0  0  0  0
 19 21  1  0  0  0  0
 20 22  2  0  0  0  0
 21 23  2  0  0  0  0
 21 24  1  0  0  0  0
 23 25  1  0  0  0  0
 24 26  1  0  0  0  0
  9 10  1  0  0  0  0
 22 23  1  0  0  0  0
 25 26  1  0  0  0  0
M  END
>  <MolRegNo>
1122139

>  <m>
=

>  <Value>
1420

>  <Unit>
nM

>  <Type>
Ki

>  <pValue>
5.85

>  <Ligand Efficiency>
0

>  <Binding Efficiency>
0

>  <Surface Efficiency>
0

>  <Assay Index>
581911

>  <Assay Category>


>  <Assay Organism>
Homo sapiens

>  <Target ID>
11365

>  <Target Name>
Cytochrome P450 2D6

>  <Target Organism>
Homo sapiens

>  <Target Description>
Target is a single protein chain

>  <Sequence Accession>
P10635

>  <Reference>
Curr Drug Metab 6 (1), 413-454 (2005)

>  <Pubmed ID>
16248836

>  <DOI>
10.2174/138920005774330639

$$$$
943226
Actelion Java MolfileCreator 1.0

 25 27  0  0  0  0  0  0  0  0999 V2000
    0.0000   -0.0000   -0.0000 F   0  0  0  0  0  0  0  0  0  0  0  0
   -0.8917    1.2202   -0.0000 C   0  0  0  0  0  0  0  0  0  0  0  0
    0.3050    2.1119   -0.0000 F   0  0  0  0  0  0  0  0  0  0  0  0
   -2.1119    0.3520   -0.0000 F   0  0  0  0  0  0  0  0  0  0  0  0
   -1.7834    2.4404   -0.0000 C   0  0  0  0  0  0  0  0  0  0  0  0
   -1.1850    3.8131   -0.0000 C   0  0  0  0  0  0  0  0  0  0  0  0
   -3.2734    2.2996   -0.0000 C   0  0  0  0  0  0  0  0  0  0  0  0
   -2.0767    5.0333   -0.0000 C   0  0  0  0  0  0  0  0  0  0  0  0
   -4.1651    3.5198   -0.0000 C   0  0  0  0  0  0  0  0  0  0  0  0
   -3.5667    4.8925   -0.0000 N   0  0  0  0  0  0  0  0  0  0  0  0
   -1.4783    6.4060   -0.0000 N   0  0  0  0  0  0  0  0  0  0  0  0
   -2.3700    7.6262   -0.0000 C   0  0  0  0  0  0  0  0  0  0  0  0
   -0.0117    6.5703   -0.0000 C   0  0  0  0  0  0  0  0  0  0  0  0
   -1.7716    8.9989   -0.0000 C   0  0  0  0  0  0  0  0  0  0  0  0
    0.5866    7.9430   -0.0000 C   0  0  0  0  0  0  0  0  0  0  0  0
   -0.3050    9.1632   -0.0000 N   0  0  0  0  0  0  0  0  0  0  0  0
    0.2933   10.5359   -0.0000 C   0  0  0  0  0  0  0  0  0  0  0  0
   -0.5984   11.7561   -0.0000 C   0  0  0  0  0  0  0  0  0  0  0  0
   -0.1525   13.1874   -0.0000 N   0  0  0  0  0  0  0  0  0  0  0  0
   -2.1001   11.7678   -0.0000 C   0  0  0  0  0  0  0  0  0  0  0  0
   -1.3727   14.0791   -0.0000 C   0  0  0  0  0  0  0  0  0  0  0  0
   -2.5694   13.1992   -0.0000 N   0  0  0  0  0  0  0  0  0  0  0  0
   -2.9918   10.5711   -0.0000 C   0  0  0  0  0  0  0  0  0  0  0  0
   -1.3844   15.5809   -0.0000 C   0  0  0  0  0  0  0  0  0  0  0  0
   -2.6868   16.3318   -0.0000 C   0  0  0  0  0  0  0  0  0  0  0  0
  1  2  1  0  0  0  0
  2  3  1  0  0  0  0
  2  4  1  0  0  0  0
  2  5  1  0  0  0  0
  5  6  2  0  0  0  0
  5  7  1  0  0  0  0
  6  8  1  0  0  0  0
  7  9  2  0  0  0  0
  8 10  2  0  0  0  0
  8 11  1  0  0  0  0
 11 12  1  0  0  0  0
 11 13  1  0  0  0  0
 12 14  1  0  0  0  0
 13 15  1  0  0  0  0
 14 16  1  0  0  0  0
 16 17  1  0  0  0  0
 17 18  1  0  0  0  0
 18 19  1  0  0  0  0
 18 20  2  0  0  0  0
 19 21  1  0  0  0  0
 20 22  1  0  0  0  0
 20 23  1  0  0  0  0
 21 24  1  0  0  0  0
 24 25  1  0  0  0  0
  9 10  1  0  0  0  0
 15 16  1  0  0  0  0
 21 22  2  0  0  0  0
M  END
>  <MolRegNo>
943226

>  <m>
=

>  <Value>
5500

>  <Unit>
nM

>  <Type>
Ki

>  <pValue>
5.26

>  <Ligand Efficiency>
0

>  <Binding Efficiency>
0

>  <Surface Efficiency>
0

>  <Assay Index>
581913

>  <Assay Category>


>  <Assay Organism>
Homo sapiens

>  <Target ID>
11365

>  <Target Name>
Cytochrome P450 2D6

>  <Target Organism>
Homo sapiens

>  <Target Description>
Target is a single protein chain

>  <Sequence Accession>
P10635

>  <Reference>
Curr Drug Metab 6 (1), 413-454 (2005)

>  <Pubmed ID>
16248836

>  <DOI>
10.2174/138920005774330639

$$$$
1122140
Actelion Java MolfileCreator 1.0

 25 28  0  0  0  0  0  0  0  0999 V2000
    0.0000   -0.0000   -0.0000 F   0  0  0  0  0  0  0  0  0  0  0  0
   -1.4542   -0.3753   -0.0000 C   0  0  0  0  0  0  0  0  0  0  0  0
   -1.8530   -1.8060   -0.0000 C   0  0  0  0  0  0  0  0  0  0  0  0
   -2.5214    0.6919   -0.0000 C   0  0  0  0  0  0  0  0  0  0  0  0
   -3.3072   -2.1813   -0.0000 N   0  0  0  0  0  0  0  0  0  0  0  0
   -3.9756    0.3166   -0.0000 N   0  0  0  0  0  0  0  0  0  0  0  0
   -4.3744   -1.1141   -0.0000 C   0  0  0  0  0  0  0  0  0  0  0  0
   -5.8286   -1.4894   -0.0000 N   0  0  0  0  0  0  0  0  0  0  0  0
   -6.2273   -2.9202   -0.0000 C   0  0  0  0  0  0  0  0  0  0  0  0
   -6.8958   -0.4222   -0.0000 C   0  0  0  0  0  0  0  0  0  0  0  0
   -7.6816   -3.2955   -0.0000 C   0  0  0  0  0  0  0  0  0  0  0  0
   -8.3500   -0.7975   -0.0000 C   0  0  0  0  0  0  0  0  0  0  0  0
   -8.7488   -2.2282   -0.0000 N   0  0  0  0  0  0  0  0  0  0  0  0
  -10.2030   -2.6035   -0.0000 C   0  0  0  0  0  0  0  0  0  0  0  0
  -11.4227   -1.7122   -0.0000 C   0  0  0  0  0  0  0  0  0  0  0  0
  -12.8534   -2.1579   -0.0000 N   0  0  0  0  0  0  0  0  0  0  0  0
  -11.4344   -0.2111   -0.0000 C   0  0  0  0  0  0  0  0  0  0  0  0
  -13.7447   -0.9382   -0.0000 C   0  0  0  0  0  0  0  0  0  0  0  0
  -12.8652    0.2580   -0.0000 N   0  0  0  0  0  0  0  0  0  0  0  0
  -15.2459   -0.9265   -0.0000 C   0  0  0  0  0  0  0  0  0  0  0  0
  -16.0081    0.3753   -0.0000 C   0  0  0  0  0  0  0  0  0  0  0  0
  -16.0081   -2.2048   -0.0000 C   0  0  0  0  0  0  0  0  0  0  0  0
  -17.5093    0.3870   -0.0000 C   0  0  0  0  0  0  0  0  0  0  0  0
  -17.5093   -2.1931   -0.0000 C   0  0  0  0  0  0  0  0  0  0  0  0
  -18.2716   -0.8913   -0.0000 C   0  0  0  0  0  0  0  0  0  0  0  0
  1  2  1  0  0  0  0
  2  3  2  0  0  0  0
  2  4  1  0  0  0  0
  3  5  1  0  0  0  0
  4  6  2  0  0  0  0
  5  7  2  0  0  0  0
  7  8  1  0  0  0  0
  8  9  1  0  0  0  0
  8 10  1  0  0  0  0
  9 11  1  0  0  0  0
 10 12  1  0  0  0  0
 11 13  1  0  0  0  0
 13 14  1  0  0  0  0
 14 15  1  0  0  0  0
 15 16  2  0  0  0  0
 15 17  1  0  0  0  0
 16 18  1  0  0  0  0
 17 19  1  0  0  0  0
 18 20  1  0  0  0  0
 20 21  2  0  0  0  0
 20 22  1  0  0  0  0
 21 23  1  0  0  0  0
 22 24  2  0  0  0  0
 23 25  2  0  0  0  0
  6  7  1  0  0  0  0
 12 13  1  0  0  0  0
 18 19  2  0  0  0  0
 24 25  1  0  0  0  0
M  END
>  <MolRegNo>
1122140

>  <m>
=

>  <Value>
4800

>  <Unit>
nM

>  <Type>
Ki

>  <pValue>
5.32

>  <Ligand Efficiency>
0

>  <Binding Efficiency>
0

>  <Surface Efficiency>
0

>  <Assay Index>
581914

>  <Assay Category>


>  <Assay Organism>
Homo sapiens

>  <Target ID>
11365

>  <Target Name>
Cytochrome P450 2D6

>  <Target Organism>
Homo sapiens

>  <Target Description>
Target is a single protein chain

>  <Sequence Accession>
P10635

>  <Reference>
Curr Drug Metab 6 (1), 413-454 (2005)

>  <Pubmed ID>
16248836

>  <DOI>
10.2174/138920005774330639

$$$$
6643
Actelion Java MolfileCreator 1.0

 24 27  0  0  1  0  0  0  0  0999 V2000
    0.0000   -0.0000   -0.0000 F   0  0  0  0  0  0  0  0  0  0  0  0
   -0.0123   -1.4865   -0.0000 C   0  0  0  0  0  0  0  0  0  0  0  0
    1.2654   -2.2236   -0.0000 C   0  0  0  0  0  0  0  0  0  0  0  0
   -1.3145   -2.2236   -0.0000 C   0  0  0  0  0  0  0  0  0  0  0  0
    1.2531   -3.7101   -0.0000 C   0  0  0  0  0  0  0  0  0  0  0  0
   -1.3268   -3.7101   -0.0000 C   0  0  0  0  0  0  0  0  0  0  0  0
   -0.0491   -4.4472   -0.0000 C   0  0  0  0  0  0  0  0  0  0  0  0
   -0.0614   -5.9337   -0.0000 C   0  0  0  0  0  0  0  0  0  0  0  0
    1.2162   -6.6708   -0.0000 C   0  0  0  0  0  0  0  0  0  0  0  0
   -1.3636   -6.6708   -0.0000 C   0  0  0  0  0  0  0  0  0  0  0  0
    1.2039   -8.1573   -0.0000 C   0  0  0  0  0  0  0  0  0  0  0  0
    2.5184   -5.9091   -0.0000 C   0  0  0  0  0  0  0  0  0  0  0  0
   -1.3759   -8.1573   -0.0000 C   0  0  0  0  0  0  0  0  0  0  0  0
   -0.0983   -8.8944   -0.0000 N   0  0  0  0  0  0  0  0  0  0  0  0
    4.0664   -6.7322   -0.0000 O   0  0  0  0  0  0  0  0  0  0  0  0
    5.3440   -5.9706   -0.0000 C   0  0  0  0  0  0  0  0  0  0  0  0
    6.6462   -6.6954   -0.0000 C   0  0  0  0  0  0  0  0  0  0  0  0
    5.3317   -4.4595   -0.0000 C   0  0  0  0  0  0  0  0  0  0  0  0
    7.9239   -5.9337   -0.0000 C   0  0  0  0  0  0  0  0  0  0  0  0
    6.6094   -3.6978   -0.0000 C   0  0  0  0  0  0  0  0  0  0  0  0
    9.3367   -6.3637   -0.0000 O   0  0  0  0  0  0  0  0  0  0  0  0
    7.9116   -4.4226   -0.0000 C   0  0  0  0  0  0  0  0  0  0  0  0
   10.2089   -5.1352   -0.0000 C   0  0  0  0  0  0  0  0  0  0  0  0
    9.3490   -3.9435   -0.0000 O   0  0  0  0  0  0  0  0  0  0  0  0
  1  2  1  0  0  0  0
  2  3  2  0  0  0  0
  2  4  1  0  0  0  0
  3  5  1  0  0  0  0
  4  6  2  0  0  0  0
  5  7  2  0  0  0  0
  8  7  1  1  0  0  0
  8  9  1  0  0  0  0
  8 10  1  0  0  0  0
  9 11  1  0  0  0  0
  9 12  1  6  0  0  0
 10 13  1  0  0  0  0
 11 14  1  0  0  0  0
 12 15  1  0  0  0  0
 15 16  1  0  0  0  0
 16 17  2  0  0  0  0
 16 18  1  0  0  0  0
 17 19  1  0  0  0  0
 18 20  2  0  0  0  0
 19 21  1  0  0  0  0
 19 22  2  0  0  0  0
 21 23  1  0  0  0  0
 22 24  1  0  0  0  0
  6  7  1  0  0  0  0
 13 14  1  0  0  0  0
 20 22  1  0  0  0  0
 23 24  1  0  0  0  0
M  END
>  <MolRegNo>
6643

>  <m>
=

>  <Value>
4850

>  <Unit>
nM

>  <Type>
Ki

>  <pValue>
5.31

>  <Ligand Efficiency>
0

>  <Binding Efficiency>
0

>  <Surface Efficiency>
0

>  <Assay Index>
581915

>  <Assay Category>


>  <Assay Organism>
Homo sapiens

>  <Target ID>
11365

>  <Target Name>
Cytochrome P450 2D6

>  <Target Organism>
Homo sapiens

>  <Target Description>
Target is a single protein chain

>  <Sequence Accession>
P10635

>  <Reference>
Curr Drug Metab 6 (1), 413-454 (2005)

>  <Pubmed ID>
16248836

>  <DOI>
10.2174/138920005774330639

$$$$
1620
Actelion Java MolfileCreator 1.0

 17 17  0  0  0  0  0  0  0  0999 V2000
    0.0000   -0.0000   -0.0000 S   0  0  0  0  0  0  0  0  0  0  0  0
    1.2356   -0.6598   -0.0000 C   0  0  0  0  0  0  0  0  0  0  0  0
   -1.3556   -0.6478   -0.0000 C   0  0  0  0  0  0  0  0  0  0  0  0
    2.5672   -0.0360   -0.0000 C   0  0  0  0  0  0  0  0  0  0  0  0
   -2.7112    0.1080   -0.0000 C   0  0  0  0  0  0  0  0  0  0  0  0
    3.8029   -0.8997   -0.0000 N   0  0  0  0  0  0  0  0  0  0  0  0
    3.0351    1.4156   -0.0000 C   0  0  0  0  0  0  0  0  0  0  0  0
   -4.0188   -0.6238   -0.0000 N   0  0  0  0  0  0  0  0  0  0  0  0
    4.9545   -0.0120   -0.0000 C   0  0  0  0  0  0  0  0  0  0  0  0
    4.4747    1.4276   -0.0000 N   0  0  0  0  0  0  0  0  0  0  0  0
    2.1834    2.6632   -0.0000 C   0  0  0  0  0  0  0  0  0  0  0  0
   -5.3024    0.2639   -0.0000 C   0  0  0  0  0  0  0  0  0  0  0  0
   -6.6340   -0.3719   -0.0000 N   0  0  0  0  0  0  0  0  0  0  0  0
   -5.3144    1.7995   -0.0000 N   0  0  0  0  0  0  0  0  0  0  0  0
   -7.9176    0.5158   -0.0000 C   0  0  0  0  0  0  0  0  0  0  0  0
   -4.0188    2.5312   -0.0000 C   0  0  0  0  0  0  0  0  0  0  0  0
   -9.1533    1.3676   -0.0000 N   0  0  0  0  0  0  0  0  0  0  0  0
  1  2  1  0  0  0  0
  1  3  1  0  0  0  0
  2  4  1  0  0  0  0
  3  5  1  0  0  0  0
  4  6  1  0  0  0  0
  4  7  2  0  0  0  0
  5  8  1  0  0  0  0
  6  9  2  0  0  0  0
  7 10  1  0  0  0  0
  7 11  1  0  0  0  0
  8 12  2  0  0  0  0
 12 13  1  0  0  0  0
 12 14  1  0  0  0  0
 13 15  1  0  0  0  0
 14 16  1  0  0  0  0
 15 17  3  0  0  0  0
  9 10  1  0  0  0  0
M  END
>  <MolRegNo>
1620

>  <m>
=

>  <Value>
77000

>  <Unit>
nM

>  <Type>
Ki

>  <pValue>
4.11

>  <Ligand Efficiency>
0

>  <Binding Efficiency>
0

>  <Surface Efficiency>
0

>  <Assay Index>
581916

>  <Assay Category>


>  <Assay Organism>
Homo sapiens

>  <Target ID>
11365

>  <Target Name>
Cytochrome P450 2D6

>  <Target Organism>
Homo sapiens

>  <Target Description>
Target is a single protein chain

>  <Sequence Accession>
P10635

>  <Reference>
Curr Drug Metab 6 (1), 413-454 (2005)

>  <Pubmed ID>
16248836

>  <DOI>
10.2174/138920005774330639

$$$$
1271151
Actelion Java MolfileCreator 1.0

 24 26  0  0  0  0  0  0  0  0999 V2000
    0.0000   -0.0000   -0.0000 O   0  0  0  0  0  0  0  0  0  0  0  0
    1.2885   -0.7397   -0.0000 C   0  0  0  0  0  0  0  0  0  0  0  0
   -1.3124   -0.7397   -0.0000 C   0  0  0  0  0  0  0  0  0  0  0  0
    2.5770    0.0239   -0.0000 C   0  0  0  0  0  0  0  0  0  0  0  0
    1.2766   -2.2310   -0.0000 C   0  0  0  0  0  0  0  0  0  0  0  0
   -2.6247    0.0239   -0.0000 O   0  0  0  0  0  0  0  0  0  0  0  0
    3.8655   -0.7278   -0.0000 C   0  0  0  0  0  0  0  0  0  0  0  0
    2.5651    1.5271   -0.0000 C   0  0  0  0  0  0  0  0  0  0  0  0
   -0.0358   -2.9707   -0.0000 C   0  0  0  0  0  0  0  0  0  0  0  0
    2.5651   -2.9707   -0.0000 C   0  0  0  0  0  0  0  0  0  0  0  0
   -3.9371   -0.7158   -0.0000 C   0  0  0  0  0  0  0  0  0  0  0  0
    5.1540    0.0358   -0.0000 C   0  0  0  0  0  0  0  0  0  0  0  0
    3.8535    2.2907   -0.0000 C   0  0  0  0  0  0  0  0  0  0  0  0
   -1.3481   -2.2191   -0.0000 C   0  0  0  0  0  0  0  0  0  0  0  0
   -0.0358   -4.4739   -0.0000 C   0  0  0  0  0  0  0  0  0  0  0  0
    2.5531   -4.4620   -0.0000 N   0  0  0  0  0  0  0  0  0  0  0  0
    5.1420    1.5510   -0.0000 C   0  0  0  0  0  0  0  0  0  0  0  0
   -2.6605   -2.9588   -0.0000 C   0  0  0  0  0  0  0  0  0  0  0  0
   -1.3481   -5.2136   -0.0000 C   0  0  0  0  0  0  0  0  0  0  0  0
    3.7581   -5.3210   -0.0000 N   0  0  0  0  0  0  0  0  0  0  0  0
    1.3243   -5.3210   -0.0000 C   0  0  0  0  0  0  0  0  0  0  0  0
   -2.6724   -4.4501   -0.0000 C   0  0  0  0  0  0  0  0  0  0  0  0
    3.2809   -6.7407   -0.0000 N   0  0  0  0  0  0  0  0  0  0  0  0
    1.7776   -6.7407   -0.0000 C   0  0  0  0  0  0  0  0  0  0  0  0
  2  1  1  6  0  0  0
  1  3  1  0  0  0  0
  2  4  1  0  0  0  0
  2  5  1  0  0  0  0
  3  6  1  0  0  0  0
  4  7  2  0  0  0  0
  4  8  1  0  0  0  0
  5  9  1  0  0  0  0
  5 10  1  6  0  0  0
  6 11  1  0  0  0  0
  7 12  1  0  0  0  0
  8 13  2  0  0  0  0
  9 14  2  0  0  0  0
  9 15  1  0  0  0  0
 10 16  1  0  0  0  0
 12 17  2  0  0  0  0
 14 18  1  0  0  0  0
 15 19  2  0  0  0  0
 16 20  1  0  0  0  0
 16 21  1  0  0  0  0
 18 22  2  0  0  0  0
 20 23  2  0  0  0  0
 21 24  2  0  0  0  0
 13 17  1  0  0  0  0
 19 22  1  0  0  0  0
 23 24  1  0  0  0  0
M  END
>  <MolRegNo>
1271151

>  <m>
=

>  <Value>
790

>  <Unit>
nM

>  <Type>
Ki

>  <pValue>
6.1

>  <Ligand Efficiency>
0.35

>  <Binding Efficiency>
18.87

>  <Surface Efficiency>
12.41

>  <Assay Index>
630342

>  <Assay Category>


>  <Assay Organism>
Homo sapiens

>  <Target ID>
65

>  <Target Name>
Cytochrome P450 19A1

>  <Target Organism>
Homo sapiens

>  <Target Description>
Target is a single protein chain

>  <Sequence Accession>
P11511

>  <Reference>
Bioorg Med Chem Lett 22 (1), 718-722 (2012)

>  <Pubmed ID>
22079757

>  <DOI>
10.1016/j.bmcl.2011.10.039

$$$$
1271153
Actelion Java MolfileCreator 1.0

 21 23  0  0  0  0  0  0  0  0999 V2000
    0.0000   -0.0000   -0.0000 O   0  0  0  0  0  0  0  0  0  0  0  0
    1.2897   -0.7404   -0.0000 C   0  0  0  0  0  0  0  0  0  0  0  0
    2.5793    0.0239   -0.0000 C   0  0  0  0  0  0  0  0  0  0  0  0
    1.2777   -2.2330   -0.0000 C   0  0  0  0  0  0  0  0  0  0  0  0
    3.8690   -0.7284   -0.0000 C   0  0  0  0  0  0  0  0  0  0  0  0
    2.5674    1.5285   -0.0000 C   0  0  0  0  0  0  0  0  0  0  0  0
   -0.0358   -2.9734   -0.0000 C   0  0  0  0  0  0  0  0  0  0  0  0
    2.5674   -2.9734   -0.0000 C   0  0  0  0  0  0  0  0  0  0  0  0
    5.1586    0.0358   -0.0000 C   0  0  0  0  0  0  0  0  0  0  0  0
    3.8570    2.2927   -0.0000 C   0  0  0  0  0  0  0  0  0  0  0  0
   -1.3494   -2.2211   -0.0000 C   0  0  0  0  0  0  0  0  0  0  0  0
   -0.0358   -4.4780   -0.0000 C   0  0  0  0  0  0  0  0  0  0  0  0
    2.5554   -4.4660   -0.0000 N   0  0  0  0  0  0  0  0  0  0  0  0
    5.1467    1.5524   -0.0000 C   0  0  0  0  0  0  0  0  0  0  0  0
   -2.6629   -2.9614   -0.0000 C   0  0  0  0  0  0  0  0  0  0  0  0
   -1.3494   -5.2183   -0.0000 C   0  0  0  0  0  0  0  0  0  0  0  0
    3.7615   -5.3258   -0.0000 N   0  0  0  0  0  0  0  0  0  0  0  0
    1.3255   -5.3258   -0.0000 C   0  0  0  0  0  0  0  0  0  0  0  0
   -2.6749   -4.4541   -0.0000 C   0  0  0  0  0  0  0  0  0  0  0  0
    3.2839   -6.7468   -0.0000 N   0  0  0  0  0  0  0  0  0  0  0  0
    1.7793   -6.7468   -0.0000 C   0  0  0  0  0  0  0  0  0  0  0  0
  1  2  2  0  0  0  0
  2  3  1  0  0  0  0
  2  4  1  0  0  0  0
  3  5  2  0  0  0  0
  3  6  1  0  0  0  0
  4  7  1  0  0  0  0
  4  8  1  0  0  0  0
  5  9  1  0  0  0  0
  6 10  2  0  0  0  0
  7 11  2  0  0  0  0
  7 12  1  0  0  0  0
  8 13  1  0  0  0  0
  9 14  2  0  0  0  0
 11 15  1  0  0  0  0
 12 16  2  0  0  0  0
 13 17  1  0  0  0  0
 13 18  1  0  0  0  0
 15 19  2  0  0  0  0
 17 20  2  0  0  0  0
 18 21  2  0  0  0  0
 10 14  1  0  0  0  0
 16 19  1  0  0  0  0
 20 21  1  0  0  0  0
M  END
>  <MolRegNo>
1271153

>  <m>
=

>  <Value>
1000

>  <Unit>
nM

>  <Type>
Ki

>  <pValue>
6

>  <Ligand Efficiency>
0.39

>  <Binding Efficiency>
21.63

>  <Surface Efficiency>
12.56

>  <Assay Index>
630342

>  <Assay Category>


>  <Assay Organism>
Homo sapiens

>  <Target ID>
65

>  <Target Name>
Cytochrome P450 19A1

>  <Target Organism>
Homo sapiens

>  <Target Description>
Target is a single protein chain

>  <Sequence Accession>
P11511

>  <Reference>
Bioorg Med Chem Lett 22 (1), 718-722 (2012)

>  <Pubmed ID>
22079757

>  <DOI>
10.1016/j.bmcl.2011.10.039

$$$$
1271154
Actelion Java MolfileCreator 1.0

 29 32  0  0  0  0  0  0  0  0999 V2000
    0.0000   -0.0000   -0.0000 O   0  0  0  0  0  0  0  0  0  0  0  0
   -1.3107   -0.7388   -0.0000 C   0  0  0  0  0  0  0  0  0  0  0  0
   -1.3226   -2.2282   -0.0000 O   0  0  0  0  0  0  0  0  0  0  0  0
   -2.6214    0.0238   -0.0000 C   0  0  0  0  0  0  0  0  0  0  0  0
   -0.0357   -2.9669   -0.0000 C   0  0  0  0  0  0  0  0  0  0  0  0
   -2.6333    1.5371   -0.0000 C   0  0  0  0  0  0  0  0  0  0  0  0
   -3.9202   -0.7149   -0.0000 C   0  0  0  0  0  0  0  0  0  0  0  0
    1.2511   -2.2044   -0.0000 C   0  0  0  0  0  0  0  0  0  0  0  0
   -0.0477   -4.4564   -0.0000 C   0  0  0  0  0  0  0  0  0  0  0  0
   -3.9440    2.2997   -0.0000 C   0  0  0  0  0  0  0  0  0  0  0  0
   -5.2309    0.0357   -0.0000 C   0  0  0  0  0  0  0  0  0  0  0  0
    2.5380   -2.9550   -0.0000 C   0  0  0  0  0  0  0  0  0  0  0  0
    1.2392   -0.7030   -0.0000 C   0  0  0  0  0  0  0  0  0  0  0  0
   -1.3584   -5.1951   -0.0000 C   0  0  0  0  0  0  0  0  0  0  0  0
    1.2392   -5.1951   -0.0000 C   0  0  0  0  0  0  0  0  0  0  0  0
   -5.2547    1.5609   -0.0000 C   0  0  0  0  0  0  0  0  0  0  0  0
    3.8249   -2.1924   -0.0000 C   0  0  0  0  0  0  0  0  0  0  0  0
    2.5261    0.0596   -0.0000 C   0  0  0  0  0  0  0  0  0  0  0  0
   -2.6691   -4.4445   -0.0000 C   0  0  0  0  0  0  0  0  0  0  0  0
   -1.3584   -6.6965   -0.0000 C   0  0  0  0  0  0  0  0  0  0  0  0
    1.2273   -6.6846   -0.0000 N   0  0  0  0  0  0  0  0  0  0  0  0
    3.8129   -0.6792   -0.0000 C   0  0  0  0  0  0  0  0  0  0  0  0
   -3.9798   -5.1832   -0.0000 C   0  0  0  0  0  0  0  0  0  0  0  0
   -2.6691   -7.4352   -0.0000 C   0  0  0  0  0  0  0  0  0  0  0  0
    2.4308   -7.5425   -0.0000 N   0  0  0  0  0  0  0  0  0  0  0  0
    0.0000   -7.5425   -0.0000 C   0  0  0  0  0  0  0  0  0  0  0  0
   -3.9917   -6.6726   -0.0000 C   0  0  0  0  0  0  0  0  0  0  0  0
    1.9541   -8.9604   -0.0000 N   0  0  0  0  0  0  0  0  0  0  0  0
    0.4528   -8.9604   -0.0000 C   0  0  0  0  0  0  0  0  0  0  0  0
  1  2  2  0  0  0  0
  2  3  1  0  0  0  0
  2  4  1  0  0  0  0
  5  3  1  6  0  0  0
  4  6  2  0  0  0  0
  4  7  1  0  0  0  0
  5  8  1  0  0  0  0
  5  9  1  0  0  0  0
  6 10  1  0  0  0  0
  7 11  2  0  0  0  0
  8 12  2  0  0  0  0
  8 13  1  0  0  0  0
  9 14  1  0  0  0  0
  9 15  1  6  0  0  0
 10 16  2  0  0  0  0
 12 17  1  0  0  0  0
 13 18  2  0  0  0  0
 14 19  2  0  0  0  0
 14 20  1  0  0  0  0
 15 21  1  0  0  0  0
 17 22  2  0  0  0  0
 19 23  1  0  0  0  0
 20 24  2  0  0  0  0
 21 25  1  0  0  0  0
 21 26  1  0  0  0  0
 23 27  2  0  0  0  0
 25 28  2  0  0  0  0
 26 29  2  0  0  0  0
 11 16  1  0  0  0  0
 18 22  1  0  0  0  0
 24 27  1  0  0  0  0
 28 29  1  0  0  0  0
M  END
>  <MolRegNo>
1271154

>  <m>
=

>  <Value>
100

>  <Unit>
nM

>  <Type>
Ki

>  <pValue>
7

>  <Ligand Efficiency>
0.33

>  <Binding Efficiency>
18.26

>  <Surface Efficiency>
12.28

>  <Assay Index>
630342

>  <Assay Category>


>  <Assay Organism>
Homo sapiens

>  <Target ID>
65

>  <Target Name>
Cytochrome P450 19A1

>  <Target Organism>
Homo sapiens

>  <Target Description>
Target is a single protein chain

>  <Sequence Accession>
P11511

>  <Reference>
Bioorg Med Chem Lett 22 (1), 718-722 (2012)

>  <Pubmed ID>
22079757

>  <DOI>
10.1016/j.bmcl.2011.10.039

$$$$
1271155
Actelion Java MolfileCreator 1.0

 24 26  0  0  0  0  0  0  0  0999 V2000
    0.0000   -0.0000   -0.0000 O   0  0  0  0  0  0  0  0  0  0  0  0
   -1.3129   -0.7400   -0.0000 C   0  0  0  0  0  0  0  0  0  0  0  0
   -1.3248   -2.2319   -0.0000 O   0  0  0  0  0  0  0  0  0  0  0  0
   -2.6257    0.0239   -0.0000 C   0  0  0  0  0  0  0  0  0  0  0  0
   -0.0358   -2.9718   -0.0000 C   0  0  0  0  0  0  0  0  0  0  0  0
    1.2532   -2.2080   -0.0000 C   0  0  0  0  0  0  0  0  0  0  0  0
   -0.0477   -4.4637   -0.0000 C   0  0  0  0  0  0  0  0  0  0  0  0
    2.5422   -2.9599   -0.0000 C   0  0  0  0  0  0  0  0  0  0  0  0
    1.2413   -0.7042   -0.0000 C   0  0  0  0  0  0  0  0  0  0  0  0
   -1.3606   -5.2037   -0.0000 C   0  0  0  0  0  0  0  0  0  0  0  0
    1.2413   -5.2037   -0.0000 C   0  0  0  0  0  0  0  0  0  0  0  0
    3.8312   -2.1961   -0.0000 C   0  0  0  0  0  0  0  0  0  0  0  0
    2.5302    0.0597   -0.0000 C   0  0  0  0  0  0  0  0  0  0  0  0
   -2.6735   -4.4518   -0.0000 C   0  0  0  0  0  0  0  0  0  0  0  0
   -1.3606   -6.7075   -0.0000 C   0  0  0  0  0  0  0  0  0  0  0  0
    1.2293   -6.6956   -0.0000 N   0  0  0  0  0  0  0  0  0  0  0  0
    3.8192   -0.6803   -0.0000 C   0  0  0  0  0  0  0  0  0  0  0  0
   -3.9863   -5.1918   -0.0000 C   0  0  0  0  0  0  0  0  0  0  0  0
   -2.6735   -7.4475   -0.0000 C   0  0  0  0  0  0  0  0  0  0  0  0
    2.4348   -7.5549   -0.0000 N   0  0  0  0  0  0  0  0  0  0  0  0
    0.0000   -7.5549   -0.0000 C   0  0  0  0  0  0  0  0  0  0  0  0
   -3.9983   -6.6837   -0.0000 C   0  0  0  0  0  0  0  0  0  0  0  0
    1.9574   -8.9752   -0.0000 N   0  0  0  0  0  0  0  0  0  0  0  0
    0.4535   -8.9752   -0.0000 C   0  0  0  0  0  0  0  0  0  0  0  0
  1  2  2  0  0  0  0
  2  3  1  0  0  0  0
  2  4  1  0  0  0  0
  5  3  1  6  0  0  0
  5  6  1  0  0  0  0
  5  7  1  0  0  0  0
  6  8  2  0  0  0  0
  6  9  1  0  0  0  0
  7 10  1  0  0  0  0
  7 11  1  6  0  0  0
  8 12  1  0  0  0  0
  9 13  2  0  0  0  0
 10 14  2  0  0  0  0
 10 15  1  0  0  0  0
 11 16  1  0  0  0  0
 12 17  2  0  0  0  0
 14 18  1  0  0  0  0
 15 19  2  0  0  0  0
 16 20  1  0  0  0  0
 16 21  1  0  0  0  0
 18 22  2  0  0  0  0
 20 23  2  0  0  0  0
 21 24  2  0  0  0  0
 13 17  1  0  0  0  0
 19 22  1  0  0  0  0
 23 24  1  0  0  0  0
M  END
>  <MolRegNo>
1271155

>  <m>
=

>  <Value>
60

>  <Unit>
nM

>  <Type>
Ki

>  <pValue>
7.22

>  <Ligand Efficiency>
0.41

>  <Binding Efficiency>
22.47

>  <Surface Efficiency>
12.67

>  <Assay Index>
630342

>  <Assay Category>


>  <Assay Organism>
Homo sapiens

>  <Target ID>
65

>  <Target Name>
Cytochrome P450 19A1

>  <Target Organism>
Homo sapiens

>  <Target Description>
Target is a single protein chain

>  <Sequence Accession>
P11511

>  <Reference>
Bioorg Med Chem Lett 22 (1), 718-722 (2012)

>  <Pubmed ID>
22079757

>  <DOI>
10.1016/j.bmcl.2011.10.039

$$$$
1271160
Actelion Java MolfileCreator 1.0

 24 26  0  0  0  0  0  0  0  0999 V2000
    0.0000   -0.0000   -0.0000 O   0  0  0  0  0  0  0  0  0  0  0  0
    1.2885   -0.7397   -0.0000 C   0  0  0  0  0  0  0  0  0  0  0  0
   -1.3124   -0.7397   -0.0000 C   0  0  0  0  0  0  0  0  0  0  0  0
    2.5770    0.0239   -0.0000 C   0  0  0  0  0  0  0  0  0  0  0  0
    1.2766   -2.2310   -0.0000 C   0  0  0  0  0  0  0  0  0  0  0  0
   -2.6247    0.0239   -0.0000 O   0  0  0  0  0  0  0  0  0  0  0  0
    3.8655   -0.7278   -0.0000 C   0  0  0  0  0  0  0  0  0  0  0  0
    2.5651    1.5271   -0.0000 C   0  0  0  0  0  0  0  0  0  0  0  0
   -0.0358   -2.9707   -0.0000 C   0  0  0  0  0  0  0  0  0  0  0  0
    2.5651   -2.9707   -0.0000 C   0  0  0  0  0  0  0  0  0  0  0  0
   -3.9371   -0.7158   -0.0000 C   0  0  0  0  0  0  0  0  0  0  0  0
    5.1540    0.0358   -0.0000 C   0  0  0  0  0  0  0  0  0  0  0  0
    3.8535    2.2907   -0.0000 C   0  0  0  0  0  0  0  0  0  0  0  0
   -1.3481   -2.2191   -0.0000 C   0  0  0  0  0  0  0  0  0  0  0  0
   -0.0358   -4.4739   -0.0000 C   0  0  0  0  0  0  0  0  0  0  0  0
    2.5531   -4.4620   -0.0000 N   0  0  0  0  0  0  0  0  0  0  0  0
    5.1420    1.5510   -0.0000 C   0  0  0  0  0  0  0  0  0  0  0  0
   -2.6605   -2.9588   -0.0000 C   0  0  0  0  0  0  0  0  0  0  0  0
   -1.3481   -5.2136   -0.0000 C   0  0  0  0  0  0  0  0  0  0  0  0
    3.7581   -5.3210   -0.0000 N   0  0  0  0  0  0  0  0  0  0  0  0
    1.3243   -5.3210   -0.0000 C   0  0  0  0  0  0  0  0  0  0  0  0
   -2.6724   -4.4501   -0.0000 C   0  0  0  0  0  0  0  0  0  0  0  0
    3.2809   -6.7407   -0.0000 N   0  0  0  0  0  0  0  0  0  0  0  0
    1.7776   -6.7407   -0.0000 C   0  0  0  0  0  0  0  0  0  0  0  0
  2  1  1  6  0  0  0
  1  3  1  0  0  0  0
  2  4  1  0  0  0  0
  2  5  1  0  0  0  0
  3  6  1  0  0  0  0
  4  7  2  0  0  0  0
  4  8  1  0  0  0  0
  5  9  1  0  0  0  0
  5 10  1  1  0  0  0
  6 11  1  0  0  0  0
  7 12  1  0  0  0  0
  8 13  2  0  0  0  0
  9 14  2  0  0  0  0
  9 15  1  0  0  0  0
 10 16  1  0  0  0  0
 12 17  2  0  0  0  0
 14 18  1  0  0  0  0
 15 19  2  0  0  0  0
 16 20  1  0  0  0  0
 16 21  1  0  0  0  0
 18 22  2  0  0  0  0
 20 23  2  0  0  0  0
 21 24  2  0  0  0  0
 13 17  1  0  0  0  0
 19 22  1  0  0  0  0
 23 24  1  0  0  0  0
M  END
>  <MolRegNo>
1271160

>  <m>
=

>  <Value>
80

>  <Unit>
nM

>  <Type>
Ki

>  <pValue>
7.1

>  <Ligand Efficiency>
0.4

>  <Binding Efficiency>
21.94

>  <Surface Efficiency>
14.43

>  <Assay Index>
630342

>  <Assay Category>


>  <Assay Organism>
Homo sapiens

>  <Target ID>
65

>  <Target Name>
Cytochrome P450 19A1

>  <Target Organism>
Homo sapiens

>  <Target Description>
Target is a single protein chain

>  <Sequence Accession>
P11511

>  <Reference>
Bioorg Med Chem Lett 22 (1), 718-722 (2012)

>  <Pubmed ID>
22079757

>  <DOI>
10.1016/j.bmcl.2011.10.039

$$$$
1271161
Actelion Java MolfileCreator 1.0

 21 23  0  0  0  0  0  0  0  0999 V2000
    0.0000   -0.0000   -0.0000 O   0  0  0  0  0  0  0  0  0  0  0  0
    1.2897   -0.7404   -0.0000 C   0  0  0  0  0  0  0  0  0  0  0  0
    2.5793    0.0239   -0.0000 C   0  0  0  0  0  0  0  0  0  0  0  0
    1.2777   -2.2330   -0.0000 C   0  0  0  0  0  0  0  0  0  0  0  0
    3.8690   -0.7284   -0.0000 C   0  0  0  0  0  0  0  0  0  0  0  0
    2.5674    1.5285   -0.0000 C   0  0  0  0  0  0  0  0  0  0  0  0
   -0.0358   -2.9734   -0.0000 C   0  0  0  0  0  0  0  0  0  0  0  0
    2.5674   -2.9734   -0.0000 C   0  0  0  0  0  0  0  0  0  0  0  0
    5.1586    0.0358   -0.0000 C   0  0  0  0  0  0  0  0  0  0  0  0
    3.8570    2.2927   -0.0000 C   0  0  0  0  0  0  0  0  0  0  0  0
   -1.3494   -2.2211   -0.0000 C   0  0  0  0  0  0  0  0  0  0  0  0
   -0.0358   -4.4780   -0.0000 C   0  0  0  0  0  0  0  0  0  0  0  0
    2.5554   -4.4660   -0.0000 N   0  0  0  0  0  0  0  0  0  0  0  0
    5.1467    1.5524   -0.0000 C   0  0  0  0  0  0  0  0  0  0  0  0
   -2.6629   -2.9614   -0.0000 C   0  0  0  0  0  0  0  0  0  0  0  0
   -1.3494   -5.2183   -0.0000 C   0  0  0  0  0  0  0  0  0  0  0  0
    3.7615   -5.3258   -0.0000 N   0  0  0  0  0  0  0  0  0  0  0  0
    1.3255   -5.3258   -0.0000 C   0  0  0  0  0  0  0  0  0  0  0  0
   -2.6749   -4.4541   -0.0000 C   0  0  0  0  0  0  0  0  0  0  0  0
    3.2839   -6.7468   -0.0000 N   0  0  0  0  0  0  0  0  0  0  0  0
    1.7793   -6.7468   -0.0000 C   0  0  0  0  0  0  0  0  0  0  0  0
  2  1  1  6  0  0  0
  2  3  1  0  0  0  0
  2  4  1  0  0  0  0
  3  5  2  0  0  0  0
  3  6  1  0  0  0  0
  4  7  1  0  0  0  0
  4  8  1  1  0  0  0
  5  9  1  0  0  0  0
  6 10  2  0  0  0  0
  7 11  2  0  0  0  0
  7 12  1  0  0  0  0
  8 13  1  0  0  0  0
  9 14  2  0  0  0  0
 11 15  1  0  0  0  0
 12 16  2  0  0  0  0
 13 17  1  0  0  0  0
 13 18  1  0  0  0  0
 15 19  2  0  0  0  0
 17 20  2  0  0  0  0
 18 21  2  0  0  0  0
 10 14  1  0  0  0  0
 16 19  1  0  0  0  0
 20 21  1  0  0  0  0
M  END
>  <MolRegNo>
1271161

>  <m>
=

>  <Value>
50

>  <Unit>
nM

>  <Type>
Ki

>  <pValue>
7.3

>  <Ligand Efficiency>
0.47

>  <Binding Efficiency>
26.14

>  <Surface Efficiency>
14.33

>  <Assay Index>
630342

>  <Assay Category>


>  <Assay Organism>
Homo sapiens

>  <Target ID>
65

>  <Target Name>
Cytochrome P450 19A1

>  <Target Organism>
Homo sapiens

>  <Target Description>
Target is a single protein chain

>  <Sequence Accession>
P11511

>  <Reference>
Bioorg Med Chem Lett 22 (1), 718-722 (2012)

>  <Pubmed ID>
22079757

>  <DOI>
10.1016/j.bmcl.2011.10.039

$$$$
1271162
Actelion Java MolfileCreator 1.0

 24 26  0  0  0  0  0  0  0  0999 V2000
    0.0000   -0.0000   -0.0000 O   0  0  0  0  0  0  0  0  0  0  0  0
   -1.3129   -0.7400   -0.0000 C   0  0  0  0  0  0  0  0  0  0  0  0
   -1.3248   -2.2319   -0.0000 O   0  0  0  0  0  0  0  0  0  0  0  0
   -2.6257    0.0239   -0.0000 C   0  0  0  0  0  0  0  0  0  0  0  0
   -0.0358   -2.9718   -0.0000 C   0  0  0  0  0  0  0  0  0  0  0  0
    1.2532   -2.2080   -0.0000 C   0  0  0  0  0  0  0  0  0  0  0  0
   -0.0477   -4.4637   -0.0000 C   0  0  0  0  0  0  0  0  0  0  0  0
    2.5422   -2.9599   -0.0000 C   0  0  0  0  0  0  0  0  0  0  0  0
    1.2413   -0.7042   -0.0000 C   0  0  0  0  0  0  0  0  0  0  0  0
   -1.3606   -5.2037   -0.0000 C   0  0  0  0  0  0  0  0  0  0  0  0
    1.2413   -5.2037   -0.0000 C   0  0  0  0  0  0  0  0  0  0  0  0
    3.8312   -2.1961   -0.0000 C   0  0  0  0  0  0  0  0  0  0  0  0
    2.5302    0.0597   -0.0000 C   0  0  0  0  0  0  0  0  0  0  0  0
   -2.6735   -4.4518   -0.0000 C   0  0  0  0  0  0  0  0  0  0  0  0
   -1.3606   -6.7075   -0.0000 C   0  0  0  0  0  0  0  0  0  0  0  0
    1.2293   -6.6956   -0.0000 N   0  0  0  0  0  0  0  0  0  0  0  0
    3.8192   -0.6803   -0.0000 C   0  0  0  0  0  0  0  0  0  0  0  0
   -3.9863   -5.1918   -0.0000 C   0  0  0  0  0  0  0  0  0  0  0  0
   -2.6735   -7.4475   -0.0000 C   0  0  0  0  0  0  0  0  0  0  0  0
    2.4348   -7.5549   -0.0000 N   0  0  0  0  0  0  0  0  0  0  0  0
    0.0000   -7.5549   -0.0000 C   0  0  0  0  0  0  0  0  0  0  0  0
   -3.9983   -6.6837   -0.0000 C   0  0  0  0  0  0  0  0  0  0  0  0
    1.9574   -8.9752   -0.0000 N   0  0  0  0  0  0  0  0  0  0  0  0
    0.4535   -8.9752   -0.0000 C   0  0  0  0  0  0  0  0  0  0  0  0
  1  2  2  0  0  0  0
  2  3  1  0  0  0  0
  2  4  1  0  0  0  0
  5  3  1  6  0  0  0
  5  6  1  0  0  0  0
  5  7  1  0  0  0  0
  6  8  2  0  0  0  0
  6  9  1  0  0  0  0
  7 10  1  0  0  0  0
  7 11  1  1  0  0  0
  8 12  1  0  0  0  0
  9 13  2  0  0  0  0
 10 14  2  0  0  0  0
 10 15  1  0  0  0  0
 11 16  1  0  0  0  0
 12 17  2  0  0  0  0
 14 18  1  0  0  0  0
 15 19  2  0  0  0  0
 16 20  1  0  0  0  0
 16 21  1  0  0  0  0
 18 22  2  0  0  0  0
 20 23  2  0  0  0  0
 21 24  2  0  0  0  0
 13 17  1  0  0  0  0
 19 22  1  0  0  0  0
 23 24  1  0  0  0  0
M  END
>  <MolRegNo>
1271162

>  <m>
=

>  <Value>
250

>  <Unit>
nM

>  <Type>
Ki

>  <pValue>
6.6

>  <Ligand Efficiency>
0.38

>  <Binding Efficiency>
20.54

>  <Surface Efficiency>
11.58

>  <Assay Index>
630342

>  <Assay Category>


>  <Assay Organism>
Homo sapiens

>  <Target ID>
65

>  <Target Name>
Cytochrome P450 19A1

>  <Target Organism>
Homo sapiens

>  <Target Description>
Target is a single protein chain

>  <Sequence Accession>
P11511

>  <Reference>
Bioorg Med Chem Lett 22 (1), 718-722 (2012)

>  <Pubmed ID>
22079757

>  <DOI>
10.1016/j.bmcl.2011.10.039

$$$$
1563049
Actelion Java MolfileCreator 1.0

 27 29  0  0  0  0  0  0  0  0999 V2000
    0.0000   -0.0000   -0.0000 O   0  0  0  0  0  0  0  0  0  0  0  0
    1.2955    0.7607   -0.0000 C   0  0  0  0  0  0  0  0  0  0  0  0
   -1.3074    0.7607   -0.0000 C   0  0  0  0  0  0  0  0  0  0  0  0
    2.5792    0.0238   -0.0000 C   0  0  0  0  0  0  0  0  0  0  0  0
    1.2837    2.2820   -0.0000 C   0  0  0  0  0  0  0  0  0  0  0  0
   -2.6267    0.0238   -0.0000 C   0  0  0  0  0  0  0  0  0  0  0  0
    3.8747    0.7845   -0.0000 C   0  0  0  0  0  0  0  0  0  0  0  0
    2.5673    3.0427   -0.0000 C   0  0  0  0  0  0  0  0  0  0  0  0
   -3.9342    0.7845   -0.0000 N   0  0  0  0  0  0  0  0  0  0  0  0
    3.8628    2.3058   -0.0000 C   0  0  0  0  0  0  0  0  0  0  0  0
    5.1465    3.0665   -0.0000 C   0  0  0  0  0  0  0  0  0  0  0  0
    6.4301    2.3296   -0.0000 C   0  0  0  0  0  0  0  0  0  0  0  0
    5.1346    4.5760   -0.0000 C   0  0  0  0  0  0  0  0  0  0  0  0
    6.4183    0.8439   -0.0000 C   0  0  0  0  0  0  0  0  0  0  0  0
    7.7019    3.1022   -0.0000 C   0  0  0  0  0  0  0  0  0  0  0  0
    3.8153    5.3367   -0.0000 C   0  0  0  0  0  0  0  0  0  0  0  0
    6.4183    5.3367   -0.0000 C   0  0  0  0  0  0  0  0  0  0  0  0
    7.7019    0.1070   -0.0000 C   0  0  0  0  0  0  0  0  0  0  0  0
    8.9856    2.3771   -0.0000 C   0  0  0  0  0  0  0  0  0  0  0  0
    3.8034    6.8461   -0.0000 C   0  0  0  0  0  0  0  0  0  0  0  0
    2.5198    4.5998   -0.0000 C   0  0  0  0  0  0  0  0  0  0  0  0
    7.7019    4.5998   -0.0000 C   0  0  0  0  0  0  0  0  0  0  0  0
    8.9856    0.8677   -0.0000 C   0  0  0  0  0  0  0  0  0  0  0  0
    2.4841    7.6068   -0.0000 C   0  0  0  0  0  0  0  0  0  0  0  0
    1.2005    5.3486   -0.0000 C   0  0  0  0  0  0  0  0  0  0  0  0
   10.2811    0.1307   -0.0000 O   0  0  0  0  0  0  0  0  0  0  0  0
    1.1767    6.8580   -0.0000 C   0  0  0  0  0  0  0  0  0  0  0  0
  1  2  1  0  0  0  0
  1  3  1  0  0  0  0
  2  4  2  0  0  0  0
  2  5  1  0  0  0  0
  3  6  1  0  0  0  0
  4  7  1  0  0  0  0
  5  8  2  0  0  0  0
  6  9  1  0  0  0  0
  7 10  2  0  0  0  0
 10 11  1  0  0  0  0
 11 12  1  0  0  0  0
 11 13  2  0  0  0  0
 12 14  2  0  0  0  0
 12 15  1  0  0  0  0
 13 16  1  0  0  0  0
 13 17  1  0  0  0  0
 14 18  1  0  0  0  0
 15 19  2  0  0  0  0
 16 20  2  0  0  0  0
 16 21  1  0  0  0  0
 17 22  1  0  0  0  0
 18 23  2  0  0  0  0
 20 24  1  0  0  0  0
 21 25  2  0  0  0  0
 23 26  1  0  0  0  0
 24 27  2  0  0  0  0
  8 10  1  0  0  0  0
 19 23  1  0  0  0  0
 25 27  1  0  0  0  0
M  END
>  <MolRegNo>
1563049

>  <m>
=

>  <Value>
442

>  <Unit>
nM

>  <Type>
Ki

>  <pValue>
6.36

>  <Ligand Efficiency>
0.32

>  <Binding Efficiency>
17.68

>  <Surface Efficiency>
11.45

>  <Assay Index>
776520

>  <Assay Category>


>  <Assay Organism>
Homo sapiens

>  <Target ID>
65

>  <Target Name>
Cytochrome P450 19A1

>  <Target Organism>
Homo sapiens

>  <Target Description>
Target is a single protein chain

>  <Sequence Accession>
P11511

>  <Reference>
J Med Chem 56 (11), 4611-4618 (2013)

>  <Pubmed ID>
23731360

>  <DOI>
10.1021/jm400364h

$$$$
1563050
Actelion Java MolfileCreator 1.0

 27 29  0  0  0  0  0  0  0  0999 V2000
    0.0000   -0.0000   -0.0000 O   0  0  0  0  0  0  0  0  0  0  0  0
   -1.3153    0.7583   -0.0000 C   0  0  0  0  0  0  0  0  0  0  0  0
    1.2797    0.7702   -0.0000 C   0  0  0  0  0  0  0  0  0  0  0  0
   -2.6187    0.0237   -0.0000 C   0  0  0  0  0  0  0  0  0  0  0  0
   -1.3389    2.2750   -0.0000 C   0  0  0  0  0  0  0  0  0  0  0  0
    2.5713    0.0355   -0.0000 C   0  0  0  0  0  0  0  0  0  0  0  0
   -3.9221    0.7820   -0.0000 C   0  0  0  0  0  0  0  0  0  0  0  0
   -2.6424    3.0215   -0.0000 C   0  0  0  0  0  0  0  0  0  0  0  0
    3.8510    0.8057   -0.0000 N   0  0  0  0  0  0  0  0  0  0  0  0
   -3.9339    2.2869   -0.0000 C   0  0  0  0  0  0  0  0  0  0  0  0
   -5.2373    3.0452   -0.0000 C   0  0  0  0  0  0  0  0  0  0  0  0
   -6.5407    2.3106   -0.0000 C   0  0  0  0  0  0  0  0  0  0  0  0
   -5.2492    4.5501   -0.0000 C   0  0  0  0  0  0  0  0  0  0  0  0
   -6.5526    0.8176   -0.0000 C   0  0  0  0  0  0  0  0  0  0  0  0
   -7.8441    3.0689   -0.0000 C   0  0  0  0  0  0  0  0  0  0  0  0
   -6.5526    5.3084   -0.0000 C   0  0  0  0  0  0  0  0  0  0  0  0
   -3.9695    5.3084   -0.0000 C   0  0  0  0  0  0  0  0  0  0  0  0
   -7.8678    0.0829   -0.0000 C   0  0  0  0  0  0  0  0  0  0  0  0
   -9.1475    2.3343   -0.0000 C   0  0  0  0  0  0  0  0  0  0  0  0
   -6.5644    6.8132   -0.0000 C   0  0  0  0  0  0  0  0  0  0  0  0
   -7.8441    4.5738   -0.0000 C   0  0  0  0  0  0  0  0  0  0  0  0
   -2.6897    4.5738   -0.0000 C   0  0  0  0  0  0  0  0  0  0  0  0
   -9.1712    0.8413   -0.0000 C   0  0  0  0  0  0  0  0  0  0  0  0
   -7.8678    7.5716   -0.0000 C   0  0  0  0  0  0  0  0  0  0  0  0
   -9.1475    5.3203   -0.0000 C   0  0  0  0  0  0  0  0  0  0  0  0
  -10.4746    0.1066   -0.0000 O   0  0  0  0  0  0  0  0  0  0  0  0
   -9.1712    6.8369   -0.0000 C   0  0  0  0  0  0  0  0  0  0  0  0
  1  2  1  0  0  0  0
  1  3  1  0  0  0  0
  2  4  2  0  0  0  0
  2  5  1  0  0  0  0
  3  6  1  0  0  0  0
  4  7  1  0  0  0  0
  5  8  2  0  0  0  0
  6  9  1  0  0  0  0
  7 10  2  0  0  0  0
 10 11  1  0  0  0  0
 11 12  1  0  0  0  0
 11 13  2  0  0  0  0
 12 14  2  0  0  0  0
 12 15  1  0  0  0  0
 13 16  1  0  0  0  0
 13 17  1  0  0  0  0
 14 18  1  0  0  0  0
 15 19  2  0  0  0  0
 16 20  2  0  0  0  0
 16 21  1  0  0  0  0
 17 22  1  0  0  0  0
 18 23  2  0  0  0  0
 20 24  1  0  0  0  0
 21 25  2  0  0  0  0
 23 26  1  0  0  0  0
 24 27  2  0  0  0  0
  8 10  1  0  0  0  0
 19 23  1  0  0  0  0
 25 27  1  0  0  0  0
M  END
>  <MolRegNo>
1563050

>  <m>
=

>  <Value>
48

>  <Unit>
nM

>  <Type>
Ki

>  <pValue>
7.32

>  <Ligand Efficiency>
0.37

>  <Binding Efficiency>
20.36

>  <Surface Efficiency>
13.19

>  <Assay Index>
776520

>  <Assay Category>


>  <Assay Organism>
Homo sapiens

>  <Target ID>
65

>  <Target Name>
Cytochrome P450 19A1

>  <Target Organism>
Homo sapiens

>  <Target Description>
Target is a single protein chain

>  <Sequence Accession>
P11511

>  <Reference>
J Med Chem 56 (11), 4611-4618 (2013)

>  <Pubmed ID>
23731360

>  <DOI>
10.1021/jm400364h

$$$$
1798991
Actelion Java MolfileCreator 1.0

 27 29  0  0  0  0  0  0  0  0999 V2000
    0.0000   -0.0000   -0.0000 O   0  0  0  0  0  0  0  0  0  0  0  0
    1.2955    0.7607   -0.0000 C   0  0  0  0  0  0  0  0  0  0  0  0
   -1.3074    0.7607   -0.0000 C   0  0  0  0  0  0  0  0  0  0  0  0
    2.5792    0.0238   -0.0000 C   0  0  0  0  0  0  0  0  0  0  0  0
    1.2837    2.2820   -0.0000 C   0  0  0  0  0  0  0  0  0  0  0  0
   -2.6267    0.0238   -0.0000 C   0  0  0  0  0  0  0  0  0  0  0  0
    3.8747    0.7845   -0.0000 C   0  0  0  0  0  0  0  0  0  0  0  0
    2.5673    3.0427   -0.0000 C   0  0  0  0  0  0  0  0  0  0  0  0
   -3.9342    0.7845   -0.0000 N   0  0  0  0  0  0  0  0  0  0  0  0
    3.8628    2.3058   -0.0000 C   0  0  0  0  0  0  0  0  0  0  0  0
    5.1465    3.0665   -0.0000 C   0  0  0  0  0  0  0  0  0  0  0  0
    6.4301    2.3296   -0.0000 C   0  0  0  0  0  0  0  0  0  0  0  0
    5.1346    4.5760   -0.0000 C   0  0  0  0  0  0  0  0  0  0  0  0
    6.4183    0.8439   -0.0000 C   0  0  0  0  0  0  0  0  0  0  0  0
    7.7019    3.1022   -0.0000 C   0  0  0  0  0  0  0  0  0  0  0  0
    3.8153    5.3367   -0.0000 C   0  0  0  0  0  0  0  0  0  0  0  0
    6.4183    5.3367   -0.0000 C   0  0  0  0  0  0  0  0  0  0  0  0
    7.7019    0.1070   -0.0000 C   0  0  0  0  0  0  0  0  0  0  0  0
    8.9856    2.3771   -0.0000 C   0  0  0  0  0  0  0  0  0  0  0  0
    3.8034    6.8461   -0.0000 C   0  0  0  0  0  0  0  0  0  0  0  0
    2.5198    4.5998   -0.0000 C   0  0  0  0  0  0  0  0  0  0  0  0
    7.7019    4.5998   -0.0000 C   0  0  0  0  0  0  0  0  0  0  0  0
    8.9856    0.8677   -0.0000 C   0  0  0  0  0  0  0  0  0  0  0  0
    2.4841    7.6068   -0.0000 C   0  0  0  0  0  0  0  0  0  0  0  0
    1.2005    5.3486   -0.0000 C   0  0  0  0  0  0  0  0  0  0  0  0
   10.2811    0.1307   -0.0000 O   0  0  0  0  0  0  0  0  0  0  0  0
    1.1767    6.8580   -0.0000 C   0  0  0  0  0  0  0  0  0  0  0  0
  1  2  1  0  0  0  0
  1  3  1  0  0  0  0
  2  4  2  0  0  0  0
  2  5  1  0  0  0  0
  3  6  1  0  0  0  0
  4  7  1  0  0  0  0
  5  8  2  0  0  0  0
  6  9  1  0  0  0  0
  7 10  2  0  0  0  0
 10 11  1  0  0  0  0
 11 12  1  0  0  0  0
 11 13  2  3  0  0  0
 12 14  2  0  0  0  0
 12 15  1  0  0  0  0
 13 16  1  0  0  0  0
 13 17  1  0  0  0  0
 14 18  1  0  0  0  0
 15 19  2  0  0  0  0
 16 20  2  0  0  0  0
 16 21  1  0  0  0  0
 17 22  1  0  0  0  0
 18 23  2  0  0  0  0
 20 24  1  0  0  0  0
 21 25  2  0  0  0  0
 23 26  1  0  0  0  0
 24 27  2  0  0  0  0
  8 10  1  0  0  0  0
 19 23  1  0  0  0  0
 25 27  1  0  0  0  0
M  END
>  <MolRegNo>
1798991

>  <m>
=

>  <Value>
77

>  <Unit>
nM

>  <Type>
Ki

>  <pValue>
7.11

>  <Ligand Efficiency>
0.36

>  <Binding Efficiency>
19.79

>  <Surface Efficiency>
12.82

>  <Assay Index>
776520

>  <Assay Category>


>  <Assay Organism>
Homo sapiens

>  <Target ID>
65

>  <Target Name>
Cytochrome P450 19A1

>  <Target Organism>
Homo sapiens

>  <Target Description>
Target is a single protein chain

>  <Sequence Accession>
P11511

>  <Reference>
J Med Chem 56 (11), 4611-4618 (2013)

>  <Pubmed ID>
23731360

>  <DOI>
10.1021/jm400364h

$$$$
1589897
Actelion Java MolfileCreator 1.0

 25 27  0  0  0  0  0  0  0  0999 V2000
    0.0000   -0.0000   -0.0000 Br  0  0  0  0  0  0  0  0  0  0  0  0
    1.2853    0.7617   -0.0000 C   0  0  0  0  0  0  0  0  0  0  0  0
    2.5706    0.0238   -0.0000 C   0  0  0  0  0  0  0  0  0  0  0  0
    1.2734    2.2850   -0.0000 C   0  0  0  0  0  0  0  0  0  0  0  0
    3.8679    0.7855   -0.0000 C   0  0  0  0  0  0  0  0  0  0  0  0
    2.5587    3.0467   -0.0000 C   0  0  0  0  0  0  0  0  0  0  0  0
    3.8560    2.3088   -0.0000 C   0  0  0  0  0  0  0  0  0  0  0  0
    5.1413    3.0824   -0.0000 C   0  0  0  0  0  0  0  0  0  0  0  0
    5.1294    4.5938   -0.0000 C   0  0  0  0  0  0  0  0  0  0  0  0
    6.4385    2.3445   -0.0000 C   0  0  0  0  0  0  0  0  0  0  0  0
    3.8084    5.3555   -0.0000 O   0  0  0  0  0  0  0  0  0  0  0  0
    6.4147    5.3555   -0.0000 C   0  0  0  0  0  0  0  0  0  0  0  0
    6.4266    0.8569   -0.0000 N   0  0  0  0  0  0  0  0  0  0  0  0
    3.7965    6.8670   -0.0000 C   0  0  0  0  0  0  0  0  0  0  0  0
    7.7000    4.6176   -0.0000 C   0  0  0  0  0  0  0  0  0  0  0  0
    6.3909    6.8551   -0.0000 C   0  0  0  0  0  0  0  0  0  0  0  0
    7.6405   -0.0000   -0.0000 N   0  0  0  0  0  0  0  0  0  0  0  0
    5.2127   -0.0119   -0.0000 C   0  0  0  0  0  0  0  0  0  0  0  0
    5.0818    7.6405   -0.0000 O   0  0  0  0  0  0  0  0  0  0  0  0
    2.4754    7.6286   -0.0000 C   0  0  0  0  0  0  0  0  0  0  0  0
    8.9854    5.3793   -0.0000 C   0  0  0  0  0  0  0  0  0  0  0  0
    7.6643    7.6286   -0.0000 C   0  0  0  0  0  0  0  0  0  0  0  0
    7.1645   -1.4162   -0.0000 N   0  0  0  0  0  0  0  0  0  0  0  0
    5.6649   -1.4281   -0.0000 C   0  0  0  0  0  0  0  0  0  0  0  0
    8.9735    6.8908   -0.0000 C   0  0  0  0  0  0  0  0  0  0  0  0
  1  2  1  0  0  0  0
  2  3  2  0  0  0  0
  2  4  1  0  0  0  0
  3  5  1  0  0  0  0
  4  6  2  0  0  0  0
  5  7  2  0  0  0  0
  7  8  1  0  0  0  0
  8  9  1  0  0  0  0
  8 10  1  1  0  0  0
  9 11  1  6  0  0  0
  9 12  1  0  0  0  0
 10 13  1  0  0  0  0
 11 14  1  0  0  0  0
 12 15  2  0  0  0  0
 12 16  1  0  0  0  0
 13 17  1  0  0  0  0
 13 18  1  0  0  0  0
 14 19  2  0  0  0  0
 14 20  1  0  0  0  0
 15 21  1  0  0  0  0
 16 22  2  0  0  0  0
 17 23  2  0  0  0  0
 18 24  2  0  0  0  0
 21 25  2  0  0  0  0
  6  7  1  0  0  0  0
 22 25  1  0  0  0  0
 23 24  1  0  0  0  0
M  END
>  <MolRegNo>
1589897

>  <m>
=

>  <Value>
647

>  <Unit>
nM

>  <Type>
Ki

>  <pValue>
6.19

>  <Ligand Efficiency>
0.34

>  <Binding Efficiency>
15.46

>  <Surface Efficiency>
10.86

>  <Assay Index>
803886

>  <Assay Category>


>  <Assay Organism>
Homo sapiens

>  <Target ID>
65

>  <Target Name>
Cytochrome P450 19A1

>  <Target Organism>
Homo sapiens

>  <Target Description>
Target is a single protein chain

>  <Sequence Accession>
P11511

>  <Reference>
Bioorg Med Chem Lett 23 (22), 6060-6063 (2013)

>  <Pubmed ID>
24113062

>  <DOI>
10.1016/j.bmcl.2013.09.030

$$$$
1589895
Actelion Java MolfileCreator 1.0

 25 27  0  0  0  0  0  0  0  0999 V2000
    0.0000   -0.0000   -0.0000 F   0  0  0  0  0  0  0  0  0  0  0  0
   -1.3090   -0.7497   -0.0000 C   0  0  0  0  0  0  0  0  0  0  0  0
   -1.3209   -2.2372   -0.0000 C   0  0  0  0  0  0  0  0  0  0  0  0
   -2.6299    0.0119   -0.0000 C   0  0  0  0  0  0  0  0  0  0  0  0
   -2.6299   -2.9750   -0.0000 C   0  0  0  0  0  0  0  0  0  0  0  0
   -3.9271   -0.7378   -0.0000 C   0  0  0  0  0  0  0  0  0  0  0  0
   -3.9390   -2.2134   -0.0000 C   0  0  0  0  0  0  0  0  0  0  0  0
   -5.2480   -2.9512   -0.0000 C   0  0  0  0  0  0  0  0  0  0  0  0
   -6.5570   -2.1896   -0.0000 O   0  0  0  0  0  0  0  0  0  0  0  0
   -5.2599   -4.4388   -0.0000 C   0  0  0  0  0  0  0  0  0  0  0  0
   -6.5689   -0.6783   -0.0000 C   0  0  0  0  0  0  0  0  0  0  0  0
   -6.5689   -5.1766   -0.0000 C   0  0  0  0  0  0  0  0  0  0  0  0
   -3.9747   -5.1766   -0.0000 C   0  0  0  0  0  0  0  0  0  0  0  0
   -5.2837    0.0833   -0.0000 O   0  0  0  0  0  0  0  0  0  0  0  0
   -7.8779    0.0833   -0.0000 C   0  0  0  0  0  0  0  0  0  0  0  0
   -7.8779   -4.4150   -0.0000 C   0  0  0  0  0  0  0  0  0  0  0  0
   -6.5808   -6.6760   -0.0000 C   0  0  0  0  0  0  0  0  0  0  0  0
   -3.9866   -6.6641   -0.0000 N   0  0  0  0  0  0  0  0  0  0  0  0
   -9.1869   -5.1528   -0.0000 C   0  0  0  0  0  0  0  0  0  0  0  0
   -7.9017   -7.4138   -0.0000 C   0  0  0  0  0  0  0  0  0  0  0  0
   -2.7727   -7.5209   -0.0000 N   0  0  0  0  0  0  0  0  0  0  0  0
   -5.2004   -7.5328   -0.0000 C   0  0  0  0  0  0  0  0  0  0  0  0
   -9.1988   -6.6522   -0.0000 C   0  0  0  0  0  0  0  0  0  0  0  0
   -3.2487   -8.9370   -0.0000 N   0  0  0  0  0  0  0  0  0  0  0  0
   -4.7482   -8.9489   -0.0000 C   0  0  0  0  0  0  0  0  0  0  0  0
  1  2  1  0  0  0  0
  2  3  2  0  0  0  0
  2  4  1  0  0  0  0
  3  5  1  0  0  0  0
  4  6  2  0  0  0  0
  5  7  2  0  0  0  0
  7  8  1  0  0  0  0
  8  9  1  6  0  0  0
  8 10  1  0  0  0  0
  9 11  1  0  0  0  0
 10 12  1  0  0  0  0
 10 13  1  1  0  0  0
 11 14  2  0  0  0  0
 11 15  1  0  0  0  0
 12 16  2  0  0  0  0
 12 17  1  0  0  0  0
 13 18  1  0  0  0  0
 16 19  1  0  0  0  0
 17 20  2  0  0  0  0
 18 21  1  0  0  0  0
 18 22  1  0  0  0  0
 19 23  2  0  0  0  0
 21 24  2  0  0  0  0
 22 25  2  0  0  0  0
  6  7  1  0  0  0  0
 20 23  1  0  0  0  0
 24 25  1  0  0  0  0
M  END
>  <MolRegNo>
1589895

>  <m>
=

>  <Value>
350

>  <Unit>
nM

>  <Type>
Ki

>  <pValue>
6.46

>  <Ligand Efficiency>
0.35

>  <Binding Efficiency>
19.02

>  <Surface Efficiency>
11.32

>  <Assay Index>
803886

>  <Assay Category>


>  <Assay Organism>
Homo sapiens

>  <Target ID>
65

>  <Target Name>
Cytochrome P450 19A1

>  <Target Organism>
Homo sapiens

>  <Target Description>
Target is a single protein chain

>  <Sequence Accession>
P11511

>  <Reference>
Bioorg Med Chem Lett 23 (22), 6060-6063 (2013)

>  <Pubmed ID>
24113062

>  <DOI>
10.1016/j.bmcl.2013.09.030

$$$$
1589894
Actelion Java MolfileCreator 1.0

 22 24  0  0  0  0  0  0  0  0999 V2000
    0.0000   -0.0000   -0.0000 Br  0  0  0  0  0  0  0  0  0  0  0  0
    1.2876    0.7630   -0.0000 C   0  0  0  0  0  0  0  0  0  0  0  0
    2.5752    0.0238   -0.0000 C   0  0  0  0  0  0  0  0  0  0  0  0
    1.2757    2.2890   -0.0000 C   0  0  0  0  0  0  0  0  0  0  0  0
    3.8747    0.7869   -0.0000 C   0  0  0  0  0  0  0  0  0  0  0  0
    2.5633    3.0521   -0.0000 C   0  0  0  0  0  0  0  0  0  0  0  0
    3.8628    2.3129   -0.0000 C   0  0  0  0  0  0  0  0  0  0  0  0
    5.1503    3.0759   -0.0000 C   0  0  0  0  0  0  0  0  0  0  0  0
    5.1384    4.5900   -0.0000 C   0  0  0  0  0  0  0  0  0  0  0  0
    6.4379    2.3367   -0.0000 C   0  0  0  0  0  0  0  0  0  0  0  0
    3.8270    5.3530   -0.0000 O   0  0  0  0  0  0  0  0  0  0  0  0
    6.4260    5.3530   -0.0000 C   0  0  0  0  0  0  0  0  0  0  0  0
    6.4260    0.8465   -0.0000 N   0  0  0  0  0  0  0  0  0  0  0  0
    7.7136    4.6139   -0.0000 C   0  0  0  0  0  0  0  0  0  0  0  0
    6.4022    6.8552   -0.0000 C   0  0  0  0  0  0  0  0  0  0  0  0
    7.6421   -0.0119   -0.0000 N   0  0  0  0  0  0  0  0  0  0  0  0
    5.2100   -0.0238   -0.0000 C   0  0  0  0  0  0  0  0  0  0  0  0
    9.0012    5.3769   -0.0000 C   0  0  0  0  0  0  0  0  0  0  0  0
    7.6778    7.6301   -0.0000 C   0  0  0  0  0  0  0  0  0  0  0  0
    7.1652   -1.4307   -0.0000 N   0  0  0  0  0  0  0  0  0  0  0  0
    5.6630   -1.4426   -0.0000 C   0  0  0  0  0  0  0  0  0  0  0  0
    8.9893    6.8910   -0.0000 C   0  0  0  0  0  0  0  0  0  0  0  0
  1  2  1  0  0  0  0
  2  3  2  0  0  0  0
  2  4  1  0  0  0  0
  3  5  1  0  0  0  0
  4  6  2  0  0  0  0
  5  7  2  0  0  0  0
  7  8  1  0  0  0  0
  8  9  1  0  0  0  0
  8 10  1  1  0  0  0
  9 11  1  6  0  0  0
  9 12  1  0  0  0  0
 10 13  1  0  0  0  0
 12 14  2  0  0  0  0
 12 15  1  0  0  0  0
 13 16  1  0  0  0  0
 13 17  1  0  0  0  0
 14 18  1  0  0  0  0
 15 19  2  0  0  0  0
 16 20  2  0  0  0  0
 17 21  2  0  0  0  0
 18 22  2  0  0  0  0
  6  7  1  0  0  0  0
 19 22  1  0  0  0  0
 20 21  1  0  0  0  0
M  END
>  <MolRegNo>
1589894

>  <m>
=

>  <Value>
841

>  <Unit>
nM

>  <Type>
Ki

>  <pValue>
6.08

>  <Ligand Efficiency>
0.38

>  <Binding Efficiency>
16.96

>  <Surface Efficiency>
11.93

>  <Assay Index>
803886

>  <Assay Category>


>  <Assay Organism>
Homo sapiens

>  <Target ID>
65

>  <Target Name>
Cytochrome P450 19A1

>  <Target Organism>
Homo sapiens

>  <Target Description>
Target is a single protein chain

>  <Sequence Accession>
P11511

>  <Reference>
Bioorg Med Chem Lett 23 (22), 6060-6063 (2013)

>  <Pubmed ID>
24113062

>  <DOI>
10.1016/j.bmcl.2013.09.030

$$$$
1589893
Actelion Java MolfileCreator 1.0

 22 24  0  0  0  0  0  0  0  0999 V2000
    0.0000   -0.0000   -0.0000 Br  0  0  0  0  0  0  0  0  0  0  0  0
   -1.3097   -0.7501   -0.0000 C   0  0  0  0  0  0  0  0  0  0  0  0
   -1.3216   -2.2385   -0.0000 C   0  0  0  0  0  0  0  0  0  0  0  0
   -2.6314    0.0119   -0.0000 C   0  0  0  0  0  0  0  0  0  0  0  0
   -2.6314   -2.9767   -0.0000 C   0  0  0  0  0  0  0  0  0  0  0  0
   -3.9292   -0.7382   -0.0000 C   0  0  0  0  0  0  0  0  0  0  0  0
   -3.9411   -2.2146   -0.0000 C   0  0  0  0  0  0  0  0  0  0  0  0
   -5.2509   -2.9529   -0.0000 C   0  0  0  0  0  0  0  0  0  0  0  0
   -6.5606   -2.1908   -0.0000 O   0  0  0  0  0  0  0  0  0  0  0  0
   -5.2628   -4.4412   -0.0000 C   0  0  0  0  0  0  0  0  0  0  0  0
   -6.5725   -5.1794   -0.0000 C   0  0  0  0  0  0  0  0  0  0  0  0
   -3.9768   -5.1794   -0.0000 C   0  0  0  0  0  0  0  0  0  0  0  0
   -7.8822   -4.4174   -0.0000 C   0  0  0  0  0  0  0  0  0  0  0  0
   -6.5844   -6.6797   -0.0000 C   0  0  0  0  0  0  0  0  0  0  0  0
   -3.9887   -6.6678   -0.0000 N   0  0  0  0  0  0  0  0  0  0  0  0
   -9.1920   -5.1556   -0.0000 C   0  0  0  0  0  0  0  0  0  0  0  0
   -7.9061   -7.4179   -0.0000 C   0  0  0  0  0  0  0  0  0  0  0  0
   -2.7743   -7.5250   -0.0000 N   0  0  0  0  0  0  0  0  0  0  0  0
   -5.2032   -7.5369   -0.0000 C   0  0  0  0  0  0  0  0  0  0  0  0
   -9.2039   -6.6559   -0.0000 C   0  0  0  0  0  0  0  0  0  0  0  0
   -3.2505   -8.9419   -0.0000 N   0  0  0  0  0  0  0  0  0  0  0  0
   -4.7508   -8.9538   -0.0000 C   0  0  0  0  0  0  0  0  0  0  0  0
  1  2  1  0  0  0  0
  2  3  2  0  0  0  0
  2  4  1  0  0  0  0
  3  5  1  0  0  0  0
  4  6  2  0  0  0  0
  5  7  2  0  0  0  0
  7  8  1  0  0  0  0
  8  9  1  6  0  0  0
  8 10  1  0  0  0  0
 10 11  1  0  0  0  0
 10 12  1  1  0  0  0
 11 13  2  0  0  0  0
 11 14  1  0  0  0  0
 12 15  1  0  0  0  0
 13 16  1  0  0  0  0
 14 17  2  0  0  0  0
 15 18  1  0  0  0  0
 15 19  1  0  0  0  0
 16 20  2  0  0  0  0
 18 21  2  0  0  0  0
 19 22  2  0  0  0  0
  6  7  1  0  0  0  0
 17 20  1  0  0  0  0
 21 22  1  0  0  0  0
M  END
>  <MolRegNo>
1589893

>  <m>
=

>  <Value>
130

>  <Unit>
nM

>  <Type>
Ki

>  <pValue>
6.89

>  <Ligand Efficiency>
0.43

>  <Binding Efficiency>
19.22

>  <Surface Efficiency>
13.52

>  <Assay Index>
803886

>  <Assay Category>


>  <Assay Organism>
Homo sapiens

>  <Target ID>
65

>  <Target Name>
Cytochrome P450 19A1

>  <Target Organism>
Homo sapiens

>  <Target Description>
Target is a single protein chain

>  <Sequence Accession>
P11511

>  <Reference>
Bioorg Med Chem Lett 23 (22), 6060-6063 (2013)

>  <Pubmed ID>
24113062

>  <DOI>
10.1016/j.bmcl.2013.09.030

$$$$
1589892
Actelion Java MolfileCreator 1.0

 22 24  0  0  0  0  0  0  0  0999 V2000
    0.0000   -0.0000   -0.0000 F   0  0  0  0  0  0  0  0  0  0  0  0
   -1.3097   -0.7501   -0.0000 C   0  0  0  0  0  0  0  0  0  0  0  0
   -1.3216   -2.2385   -0.0000 C   0  0  0  0  0  0  0  0  0  0  0  0
   -2.6314    0.0119   -0.0000 C   0  0  0  0  0  0  0  0  0  0  0  0
   -2.6314   -2.9767   -0.0000 C   0  0  0  0  0  0  0  0  0  0  0  0
   -3.9292   -0.7382   -0.0000 C   0  0  0  0  0  0  0  0  0  0  0  0
   -3.9411   -2.2146   -0.0000 C   0  0  0  0  0  0  0  0  0  0  0  0
   -5.2509   -2.9529   -0.0000 C   0  0  0  0  0  0  0  0  0  0  0  0
   -6.5606   -2.1908   -0.0000 O   0  0  0  0  0  0  0  0  0  0  0  0
   -5.2628   -4.4412   -0.0000 C   0  0  0  0  0  0  0  0  0  0  0  0
   -6.5725   -5.1794   -0.0000 C   0  0  0  0  0  0  0  0  0  0  0  0
   -3.9768   -5.1794   -0.0000 C   0  0  0  0  0  0  0  0  0  0  0  0
   -7.8822   -4.4174   -0.0000 C   0  0  0  0  0  0  0  0  0  0  0  0
   -6.5844   -6.6797   -0.0000 C   0  0  0  0  0  0  0  0  0  0  0  0
   -3.9887   -6.6678   -0.0000 N   0  0  0  0  0  0  0  0  0  0  0  0
   -9.1920   -5.1556   -0.0000 C   0  0  0  0  0  0  0  0  0  0  0  0
   -7.9061   -7.4179   -0.0000 C   0  0  0  0  0  0  0  0  0  0  0  0
   -2.7743   -7.5250   -0.0000 N   0  0  0  0  0  0  0  0  0  0  0  0
   -5.2032   -7.5369   -0.0000 C   0  0  0  0  0  0  0  0  0  0  0  0
   -9.2039   -6.6559   -0.0000 C   0  0  0  0  0  0  0  0  0  0  0  0
   -3.2505   -8.9419   -0.0000 N   0  0  0  0  0  0  0  0  0  0  0  0
   -4.7508   -8.9538   -0.0000 C   0  0  0  0  0  0  0  0  0  0  0  0
  1  2  1  0  0  0  0
  2  3  2  0  0  0  0
  2  4  1  0  0  0  0
  3  5  1  0  0  0  0
  4  6  2  0  0  0  0
  5  7  2  0  0  0  0
  7  8  1  0  0  0  0
  8  9  1  6  0  0  0
  8 10  1  0  0  0  0
 10 11  1  0  0  0  0
 10 12  1  1  0  0  0
 11 13  2  0  0  0  0
 11 14  1  0  0  0  0
 12 15  1  0  0  0  0
 13 16  1  0  0  0  0
 14 17  2  0  0  0  0
 15 18  1  0  0  0  0
 15 19  1  0  0  0  0
 16 20  2  0  0  0  0
 18 21  2  0  0  0  0
 19 22  2  0  0  0  0
  6  7  1  0  0  0  0
 17 20  1  0  0  0  0
 21 22  1  0  0  0  0
M  END
>  <MolRegNo>
1589892

>  <m>
=

>  <Value>
200

>  <Unit>
nM

>  <Type>
Ki

>  <pValue>
6.7

>  <Ligand Efficiency>
0.42

>  <Binding Efficiency>
22.53

>  <Surface Efficiency>
13.15

>  <Assay Index>
803886

>  <Assay Category>


>  <Assay Organism>
Homo sapiens

>  <Target ID>
65

>  <Target Name>
Cytochrome P450 19A1

>  <Target Organism>
Homo sapiens

>  <Target Description>
Target is a single protein chain

>  <Sequence Accession>
P11511

>  <Reference>
Bioorg Med Chem Lett 23 (22), 6060-6063 (2013)

>  <Pubmed ID>
24113062

>  <DOI>
10.1016/j.bmcl.2013.09.030

$$$$
1589891
Actelion Java MolfileCreator 1.0

 25 27  0  0  0  0  0  0  0  0999 V2000
    0.0000   -0.0000   -0.0000 Br  0  0  0  0  0  0  0  0  0  0  0  0
    1.2971    0.7616   -0.0000 C   0  0  0  0  0  0  0  0  0  0  0  0
    2.5941    0.0238   -0.0000 C   0  0  0  0  0  0  0  0  0  0  0  0
    1.2852    2.2847   -0.0000 C   0  0  0  0  0  0  0  0  0  0  0  0
    3.8912    0.7854   -0.0000 C   0  0  0  0  0  0  0  0  0  0  0  0
    2.5822    3.0463   -0.0000 C   0  0  0  0  0  0  0  0  0  0  0  0
    3.8793    2.3085   -0.0000 C   0  0  0  0  0  0  0  0  0  0  0  0
    5.1644    3.0701   -0.0000 C   0  0  0  0  0  0  0  0  0  0  0  0
    5.1525    4.5814   -0.0000 C   0  0  0  0  0  0  0  0  0  0  0  0
    6.4496    2.3323   -0.0000 C   0  0  0  0  0  0  0  0  0  0  0  0
    3.8436    5.3429   -0.0000 O   0  0  0  0  0  0  0  0  0  0  0  0
    6.4377    5.3429   -0.0000 C   0  0  0  0  0  0  0  0  0  0  0  0
    6.4377    0.8449   -0.0000 N   0  0  0  0  0  0  0  0  0  0  0  0
    3.8317    6.8542   -0.0000 C   0  0  0  0  0  0  0  0  0  0  0  0
    7.7229    4.6052   -0.0000 C   0  0  0  0  0  0  0  0  0  0  0  0
    6.4139    6.8423   -0.0000 C   0  0  0  0  0  0  0  0  0  0  0  0
    7.6515   -0.0119   -0.0000 N   0  0  0  0  0  0  0  0  0  0  0  0
    5.2239   -0.0238   -0.0000 C   0  0  0  0  0  0  0  0  0  0  0  0
    2.5227    7.6158   -0.0000 O   0  0  0  0  0  0  0  0  0  0  0  0
    9.0080    5.3667   -0.0000 C   0  0  0  0  0  0  0  0  0  0  0  0
    7.6872    7.6158   -0.0000 C   0  0  0  0  0  0  0  0  0  0  0  0
    7.1755   -1.4280   -0.0000 N   0  0  0  0  0  0  0  0  0  0  0  0
    5.6761   -1.4399   -0.0000 C   0  0  0  0  0  0  0  0  0  0  0  0
    2.5108    9.1270   -0.0000 C   0  0  0  0  0  0  0  0  0  0  0  0
    8.9961    6.8780   -0.0000 C   0  0  0  0  0  0  0  0  0  0  0  0
  1  2  1  0  0  0  0
  2  3  2  0  0  0  0
  2  4  1  0  0  0  0
  3  5  1  0  0  0  0
  4  6  2  0  0  0  0
  5  7  2  0  0  0  0
  7  8  1  0  0  0  0
  8  9  1  0  0  0  0
  8 10  1  1  0  0  0
  9 11  1  6  0  0  0
  9 12  1  0  0  0  0
 10 13  1  0  0  0  0
 11 14  1  0  0  0  0
 12 15  2  0  0  0  0
 12 16  1  0  0  0  0
 13 17  1  0  0  0  0
 13 18  1  0  0  0  0
 14 19  1  0  0  0  0
 15 20  1  0  0  0  0
 16 21  2  0  0  0  0
 17 22  2  0  0  0  0
 18 23  2  0  0  0  0
 19 24  1  0  0  0  0
 20 25  2  0  0  0  0
  6  7  1  0  0  0  0
 21 25  1  0  0  0  0
 22 23  1  0  0  0  0
M  END
>  <MolRegNo>
1589891

>  <m>
=

>  <Value>
20

>  <Unit>
nM

>  <Type>
Ki

>  <pValue>
7.7

>  <Ligand Efficiency>
0.42

>  <Binding Efficiency>
19.14

>  <Surface Efficiency>
15.66

>  <Assay Index>
803886

>  <Assay Category>


>  <Assay Organism>
Homo sapiens

>  <Target ID>
65

>  <Target Name>
Cytochrome P450 19A1

>  <Target Organism>
Homo sapiens

>  <Target Description>
Target is a single protein chain

>  <Sequence Accession>
P11511

>  <Reference>
Bioorg Med Chem Lett 23 (22), 6060-6063 (2013)

>  <Pubmed ID>
24113062

>  <DOI>
10.1016/j.bmcl.2013.09.030

$$$$
1589890
Actelion Java MolfileCreator 1.0

 25 27  0  0  0  0  0  0  0  0999 V2000
    0.0000   -0.0000   -0.0000 Br  0  0  0  0  0  0  0  0  0  0  0  0
   -1.3085   -0.7494   -0.0000 C   0  0  0  0  0  0  0  0  0  0  0  0
   -1.3204   -2.2363   -0.0000 C   0  0  0  0  0  0  0  0  0  0  0  0
   -2.6288    0.0119   -0.0000 C   0  0  0  0  0  0  0  0  0  0  0  0
   -2.6288   -2.9738   -0.0000 C   0  0  0  0  0  0  0  0  0  0  0  0
   -3.9254   -0.7375   -0.0000 C   0  0  0  0  0  0  0  0  0  0  0  0
   -3.9373   -2.2125   -0.0000 C   0  0  0  0  0  0  0  0  0  0  0  0
   -5.2457   -2.9500   -0.0000 C   0  0  0  0  0  0  0  0  0  0  0  0
   -6.5542   -2.1887   -0.0000 O   0  0  0  0  0  0  0  0  0  0  0  0
   -5.2576   -4.4369   -0.0000 C   0  0  0  0  0  0  0  0  0  0  0  0
   -6.5661   -0.6780   -0.0000 C   0  0  0  0  0  0  0  0  0  0  0  0
   -6.5661   -5.1743   -0.0000 C   0  0  0  0  0  0  0  0  0  0  0  0
   -3.9729   -5.1743   -0.0000 C   0  0  0  0  0  0  0  0  0  0  0  0
   -7.8745    0.0833   -0.0000 O   0  0  0  0  0  0  0  0  0  0  0  0
   -7.8745   -4.4131   -0.0000 C   0  0  0  0  0  0  0  0  0  0  0  0
   -6.5780   -6.6731   -0.0000 C   0  0  0  0  0  0  0  0  0  0  0  0
   -3.9848   -6.6612   -0.0000 N   0  0  0  0  0  0  0  0  0  0  0  0
   -7.8864    1.5939   -0.0000 C   0  0  0  0  0  0  0  0  0  0  0  0
   -9.1830   -5.1506   -0.0000 C   0  0  0  0  0  0  0  0  0  0  0  0
   -7.8983   -7.4106   -0.0000 C   0  0  0  0  0  0  0  0  0  0  0  0
   -2.7715   -7.5177   -0.0000 N   0  0  0  0  0  0  0  0  0  0  0  0
   -5.1981   -7.5296   -0.0000 C   0  0  0  0  0  0  0  0  0  0  0  0
   -9.1949   -6.6493   -0.0000 C   0  0  0  0  0  0  0  0  0  0  0  0
   -3.2474   -8.9332   -0.0000 N   0  0  0  0  0  0  0  0  0  0  0  0
   -4.7461   -8.9451   -0.0000 C   0  0  0  0  0  0  0  0  0  0  0  0
  1  2  1  0  0  0  0
  2  3  2  0  0  0  0
  2  4  1  0  0  0  0
  3  5  1  0  0  0  0
  4  6  2  0  0  0  0
  5  7  2  0  0  0  0
  7  8  1  0  0  0  0
  8  9  1  6  0  0  0
  8 10  1  0  0  0  0
  9 11  1  0  0  0  0
 10 12  1  0  0  0  0
 10 13  1  1  0  0  0
 11 14  1  0  0  0  0
 12 15  2  0  0  0  0
 12 16  1  0  0  0  0
 13 17  1  0  0  0  0
 14 18  1  0  0  0  0
 15 19  1  0  0  0  0
 16 20  2  0  0  0  0
 17 21  1  0  0  0  0
 17 22  1  0  0  0  0
 19 23  2  0  0  0  0
 21 24  2  0  0  0  0
 22 25  2  0  0  0  0
  6  7  1  0  0  0  0
 20 23  1  0  0  0  0
 24 25  1  0  0  0  0
M  END
>  <MolRegNo>
1589890

>  <m>
=

>  <Value>
70

>  <Unit>
nM

>  <Type>
Ki

>  <pValue>
7.16

>  <Ligand Efficiency>
0.39

>  <Binding Efficiency>
17.79

>  <Surface Efficiency>
14.55

>  <Assay Index>
803886

>  <Assay Category>


>  <Assay Organism>
Homo sapiens

>  <Target ID>
65

>  <Target Name>
Cytochrome P450 19A1

>  <Target Organism>
Homo sapiens

>  <Target Description>
Target is a single protein chain

>  <Sequence Accession>
P11511

>  <Reference>
Bioorg Med Chem Lett 23 (22), 6060-6063 (2013)

>  <Pubmed ID>
24113062

>  <DOI>
10.1016/j.bmcl.2013.09.030

$$$$
1589889
Actelion Java MolfileCreator 1.0

 25 27  0  0  0  0  0  0  0  0999 V2000
    0.0000   -0.0000   -0.0000 F   0  0  0  0  0  0  0  0  0  0  0  0
   -1.3081   -0.7492   -0.0000 C   0  0  0  0  0  0  0  0  0  0  0  0
   -1.3200   -2.2357   -0.0000 C   0  0  0  0  0  0  0  0  0  0  0  0
   -2.6281    0.0119   -0.0000 C   0  0  0  0  0  0  0  0  0  0  0  0
   -2.6281   -2.9730   -0.0000 C   0  0  0  0  0  0  0  0  0  0  0  0
   -3.9244   -0.7373   -0.0000 C   0  0  0  0  0  0  0  0  0  0  0  0
   -3.9363   -2.2119   -0.0000 C   0  0  0  0  0  0  0  0  0  0  0  0
   -5.2444   -2.9492   -0.0000 C   0  0  0  0  0  0  0  0  0  0  0  0
   -6.5525   -2.1881   -0.0000 O   0  0  0  0  0  0  0  0  0  0  0  0
   -5.2563   -4.4357   -0.0000 C   0  0  0  0  0  0  0  0  0  0  0  0
   -6.5644   -0.6778   -0.0000 C   0  0  0  0  0  0  0  0  0  0  0  0
   -6.5644   -5.1730   -0.0000 C   0  0  0  0  0  0  0  0  0  0  0  0
   -3.9600   -5.1730   -0.0000 C   0  0  0  0  0  0  0  0  0  0  0  0
   -7.8725    0.0832   -0.0000 O   0  0  0  0  0  0  0  0  0  0  0  0
   -7.8725   -4.4119   -0.0000 C   0  0  0  0  0  0  0  0  0  0  0  0
   -6.5763   -6.6714   -0.0000 C   0  0  0  0  0  0  0  0  0  0  0  0
   -3.9719   -6.6595   -0.0000 N   0  0  0  0  0  0  0  0  0  0  0  0
   -7.8844    1.5935   -0.0000 C   0  0  0  0  0  0  0  0  0  0  0  0
   -9.1806   -5.1492   -0.0000 C   0  0  0  0  0  0  0  0  0  0  0  0
   -7.8963   -7.4087   -0.0000 C   0  0  0  0  0  0  0  0  0  0  0  0
   -2.7589   -7.5158   -0.0000 N   0  0  0  0  0  0  0  0  0  0  0  0
   -5.1849   -7.5277   -0.0000 C   0  0  0  0  0  0  0  0  0  0  0  0
   -9.1925   -6.6476   -0.0000 C   0  0  0  0  0  0  0  0  0  0  0  0
   -3.2346   -8.9309   -0.0000 N   0  0  0  0  0  0  0  0  0  0  0  0
   -4.7330   -8.9428   -0.0000 C   0  0  0  0  0  0  0  0  0  0  0  0
  1  2  1  0  0  0  0
  2  3  2  0  0  0  0
  2  4  1  0  0  0  0
  3  5  1  0  0  0  0
  4  6  2  0  0  0  0
  5  7  2  0  0  0  0
  7  8  1  0  0  0  0
  8  9  1  6  0  0  0
  8 10  1  0  0  0  0
  9 11  1  0  0  0  0
 10 12  1  0  0  0  0
 10 13  1  1  0  0  0
 11 14  1  0  0  0  0
 12 15  2  0  0  0  0
 12 16  1  0  0  0  0
 13 17  1  0  0  0  0
 14 18  1  0  0  0  0
 15 19  1  0  0  0  0
 16 20  2  0  0  0  0
 17 21  1  0  0  0  0
 17 22  1  0  0  0  0
 19 23  2  0  0  0  0
 21 24  2  0  0  0  0
 22 25  2  0  0  0  0
  6  7  1  0  0  0  0
 20 23  1  0  0  0  0
 24 25  1  0  0  0  0
M  END
>  <MolRegNo>
1589889

>  <m>
=

>  <Value>
160

>  <Unit>
nM

>  <Type>
Ki

>  <pValue>
6.8

>  <Ligand Efficiency>
0.37

>  <Binding Efficiency>
19.91

>  <Surface Efficiency>
13.82

>  <Assay Index>
803886

>  <Assay Category>


>  <Assay Organism>
Homo sapiens

>  <Target ID>
65

>  <Target Name>
Cytochrome P450 19A1

>  <Target Organism>
Homo sapiens

>  <Target Description>
Target is a single protein chain

>  <Sequence Accession>
P11511

>  <Reference>
Bioorg Med Chem Lett 23 (22), 6060-6063 (2013)

>  <Pubmed ID>
24113062

>  <DOI>
10.1016/j.bmcl.2013.09.030

$$$$
1589888
Actelion Java MolfileCreator 1.0

 25 27  0  0  0  0  0  0  0  0999 V2000
    0.0000   -0.0000   -0.0000 Br  0  0  0  0  0  0  0  0  0  0  0  0
    1.2867    0.7625   -0.0000 C   0  0  0  0  0  0  0  0  0  0  0  0
    2.5734    0.0238   -0.0000 C   0  0  0  0  0  0  0  0  0  0  0  0
    1.2748    2.2875   -0.0000 C   0  0  0  0  0  0  0  0  0  0  0  0
    3.8720    0.7863   -0.0000 C   0  0  0  0  0  0  0  0  0  0  0  0
    2.5615    3.0499   -0.0000 C   0  0  0  0  0  0  0  0  0  0  0  0
    3.8601    2.3113   -0.0000 C   0  0  0  0  0  0  0  0  0  0  0  0
    5.1468    3.0738   -0.0000 C   0  0  0  0  0  0  0  0  0  0  0  0
    5.1349    4.5868   -0.0000 C   0  0  0  0  0  0  0  0  0  0  0  0
    6.4335    2.3351   -0.0000 C   0  0  0  0  0  0  0  0  0  0  0  0
    3.8243    5.3493   -0.0000 O   0  0  0  0  0  0  0  0  0  0  0  0
    6.4216    5.3493   -0.0000 C   0  0  0  0  0  0  0  0  0  0  0  0
    6.4216    0.8459   -0.0000 N   0  0  0  0  0  0  0  0  0  0  0  0
    3.8124    6.8624   -0.0000 C   0  0  0  0  0  0  0  0  0  0  0  0
    7.7083    4.6107   -0.0000 C   0  0  0  0  0  0  0  0  0  0  0  0
    6.3977    6.8505   -0.0000 C   0  0  0  0  0  0  0  0  0  0  0  0
    7.6368   -0.0119   -0.0000 N   0  0  0  0  0  0  0  0  0  0  0  0
    5.2063   -0.0238   -0.0000 C   0  0  0  0  0  0  0  0  0  0  0  0
    5.0991    7.6249   -0.0000 O   0  0  0  0  0  0  0  0  0  0  0  0
    2.5019    7.6249   -0.0000 C   0  0  0  0  0  0  0  0  0  0  0  0
    8.9949    5.3731   -0.0000 C   0  0  0  0  0  0  0  0  0  0  0  0
    7.6725    7.6249   -0.0000 C   0  0  0  0  0  0  0  0  0  0  0  0
    7.1602   -1.4297   -0.0000 N   0  0  0  0  0  0  0  0  0  0  0  0
    5.6591   -1.4416   -0.0000 C   0  0  0  0  0  0  0  0  0  0  0  0
    8.9830    6.8862   -0.0000 C   0  0  0  0  0  0  0  0  0  0  0  0
  1  2  1  0  0  0  0
  2  3  2  0  0  0  0
  2  4  1  0  0  0  0
  3  5  1  0  0  0  0
  4  6  2  0  0  0  0
  5  7  2  0  0  0  0
  7  8  1  0  0  0  0
  8  9  1  0  0  0  0
  8 10  1  6  0  0  0
  9 11  1  6  0  0  0
  9 12  1  0  0  0  0
 10 13  1  0  0  0  0
 11 14  1  0  0  0  0
 12 15  2  0  0  0  0
 12 16  1  0  0  0  0
 13 17  1  0  0  0  0
 13 18  1  0  0  0  0
 14 19  2  0  0  0  0
 14 20  1  0  0  0  0
 15 21  1  0  0  0  0
 16 22  2  0  0  0  0
 17 23  2  0  0  0  0
 18 24  2  0  0  0  0
 21 25  2  0  0  0  0
  6  7  1  0  0  0  0
 22 25  1  0  0  0  0
 23 24  1  0  0  0  0
M  END
>  <MolRegNo>
1589888

>  <m>
=

>  <Value>
237

>  <Unit>
nM

>  <Type>
Ki

>  <pValue>
6.62

>  <Ligand Efficiency>
0.36

>  <Binding Efficiency>
16.55

>  <Surface Efficiency>
11.62

>  <Assay Index>
803886

>  <Assay Category>


>  <Assay Organism>
Homo sapiens

>  <Target ID>
65

>  <Target Name>
Cytochrome P450 19A1

>  <Target Organism>
Homo sapiens

>  <Target Description>
Target is a single protein chain

>  <Sequence Accession>
P11511

>  <Reference>
Bioorg Med Chem Lett 23 (22), 6060-6063 (2013)

>  <Pubmed ID>
24113062

>  <DOI>
10.1016/j.bmcl.2013.09.030

$$$$
1589887
Actelion Java MolfileCreator 1.0

 25 27  0  0  0  0  0  0  0  0999 V2000
    0.0000   -0.0000   -0.0000 Br  0  0  0  0  0  0  0  0  0  0  0  0
   -1.3088   -0.7496   -0.0000 C   0  0  0  0  0  0  0  0  0  0  0  0
   -1.3207   -2.2369   -0.0000 C   0  0  0  0  0  0  0  0  0  0  0  0
   -2.6295    0.0119   -0.0000 C   0  0  0  0  0  0  0  0  0  0  0  0
   -2.6295   -2.9746   -0.0000 C   0  0  0  0  0  0  0  0  0  0  0  0
   -3.9265   -0.7377   -0.0000 C   0  0  0  0  0  0  0  0  0  0  0  0
   -3.9384   -2.2131   -0.0000 C   0  0  0  0  0  0  0  0  0  0  0  0
   -5.2472   -2.9508   -0.0000 C   0  0  0  0  0  0  0  0  0  0  0  0
   -6.5560   -2.1893   -0.0000 O   0  0  0  0  0  0  0  0  0  0  0  0
   -5.2591   -4.4381   -0.0000 C   0  0  0  0  0  0  0  0  0  0  0  0
   -6.5679   -0.6782   -0.0000 C   0  0  0  0  0  0  0  0  0  0  0  0
   -6.5679   -5.1758   -0.0000 C   0  0  0  0  0  0  0  0  0  0  0  0
   -3.9741   -5.1758   -0.0000 C   0  0  0  0  0  0  0  0  0  0  0  0
   -5.2829    0.0952   -0.0000 O   0  0  0  0  0  0  0  0  0  0  0  0
   -7.8767    0.0833   -0.0000 C   0  0  0  0  0  0  0  0  0  0  0  0
   -7.8767   -4.4143   -0.0000 C   0  0  0  0  0  0  0  0  0  0  0  0
   -6.5798   -6.6750   -0.0000 C   0  0  0  0  0  0  0  0  0  0  0  0
   -3.9860   -6.6631   -0.0000 N   0  0  0  0  0  0  0  0  0  0  0  0
   -9.1856   -5.1520   -0.0000 C   0  0  0  0  0  0  0  0  0  0  0  0
   -7.9005   -7.4127   -0.0000 C   0  0  0  0  0  0  0  0  0  0  0  0
   -2.7723   -7.5198   -0.0000 N   0  0  0  0  0  0  0  0  0  0  0  0
   -5.1996   -7.5317   -0.0000 C   0  0  0  0  0  0  0  0  0  0  0  0
   -9.1975   -6.6512   -0.0000 C   0  0  0  0  0  0  0  0  0  0  0  0
   -3.2483   -8.9357   -0.0000 N   0  0  0  0  0  0  0  0  0  0  0  0
   -4.7475   -8.9476   -0.0000 C   0  0  0  0  0  0  0  0  0  0  0  0
  1  2  1  0  0  0  0
  2  3  2  0  0  0  0
  2  4  1  0  0  0  0
  3  5  1  0  0  0  0
  4  6  2  0  0  0  0
  5  7  2  0  0  0  0
  7  8  1  0  0  0  0
  8  9  1  6  0  0  0
  8 10  1  0  0  0  0
  9 11  1  0  0  0  0
 10 12  1  0  0  0  0
 10 13  1  6  0  0  0
 11 14  2  0  0  0  0
 11 15  1  0  0  0  0
 12 16  2  0  0  0  0
 12 17  1  0  0  0  0
 13 18  1  0  0  0  0
 16 19  1  0  0  0  0
 17 20  2  0  0  0  0
 18 21  1  0  0  0  0
 18 22  1  0  0  0  0
 19 23  2  0  0  0  0
 21 24  2  0  0  0  0
 22 25  2  0  0  0  0
  6  7  1  0  0  0  0
 20 23  1  0  0  0  0
 24 25  1  0  0  0  0
M  END
>  <MolRegNo>
1589887

>  <m>
=

>  <Value>
90

>  <Unit>
nM

>  <Type>
Ki

>  <pValue>
7.05

>  <Ligand Efficiency>
0.38

>  <Binding Efficiency>
17.6

>  <Surface Efficiency>
12.36

>  <Assay Index>
803886

>  <Assay Category>


>  <Assay Organism>
Homo sapiens

>  <Target ID>
65

>  <Target Name>
Cytochrome P450 19A1

>  <Target Organism>
Homo sapiens

>  <Target Description>
Target is a single protein chain

>  <Sequence Accession>
P11511

>  <Reference>
Bioorg Med Chem Lett 23 (22), 6060-6063 (2013)

>  <Pubmed ID>
24113062

>  <DOI>
10.1016/j.bmcl.2013.09.030

$$$$
1589886
Actelion Java MolfileCreator 1.0

 25 27  0  0  0  0  0  0  0  0999 V2000
    0.0000   -0.0000   -0.0000 F   0  0  0  0  0  0  0  0  0  0  0  0
   -1.3077   -0.7489   -0.0000 C   0  0  0  0  0  0  0  0  0  0  0  0
   -1.3196   -2.2350   -0.0000 C   0  0  0  0  0  0  0  0  0  0  0  0
   -2.6273    0.0119   -0.0000 C   0  0  0  0  0  0  0  0  0  0  0  0
   -2.6273   -2.9720   -0.0000 C   0  0  0  0  0  0  0  0  0  0  0  0
   -3.9231   -0.7371   -0.0000 C   0  0  0  0  0  0  0  0  0  0  0  0
   -3.9350   -2.2112   -0.0000 C   0  0  0  0  0  0  0  0  0  0  0  0
   -5.2426   -2.9482   -0.0000 C   0  0  0  0  0  0  0  0  0  0  0  0
   -6.5503   -2.1874   -0.0000 O   0  0  0  0  0  0  0  0  0  0  0  0
   -5.2545   -4.4342   -0.0000 C   0  0  0  0  0  0  0  0  0  0  0  0
   -6.5622   -0.6776   -0.0000 C   0  0  0  0  0  0  0  0  0  0  0  0
   -6.5622   -5.1713   -0.0000 C   0  0  0  0  0  0  0  0  0  0  0  0
   -3.9706   -5.1713   -0.0000 C   0  0  0  0  0  0  0  0  0  0  0  0
   -5.2783    0.0832   -0.0000 O   0  0  0  0  0  0  0  0  0  0  0  0
   -7.8699    0.0832   -0.0000 C   0  0  0  0  0  0  0  0  0  0  0  0
   -7.8818   -4.4105   -0.0000 C   0  0  0  0  0  0  0  0  0  0  0  0
   -6.5741   -6.6692   -0.0000 C   0  0  0  0  0  0  0  0  0  0  0  0
   -3.9825   -6.6573   -0.0000 N   0  0  0  0  0  0  0  0  0  0  0  0
   -9.2014   -5.1475   -0.0000 C   0  0  0  0  0  0  0  0  0  0  0  0
   -7.8937   -7.4063   -0.0000 C   0  0  0  0  0  0  0  0  0  0  0  0
   -2.7699   -7.5133   -0.0000 N   0  0  0  0  0  0  0  0  0  0  0  0
   -5.1951   -7.5251   -0.0000 C   0  0  0  0  0  0  0  0  0  0  0  0
   -9.2133   -6.6454   -0.0000 C   0  0  0  0  0  0  0  0  0  0  0  0
   -3.2454   -8.9279   -0.0000 N   0  0  0  0  0  0  0  0  0  0  0  0
   -4.7433   -8.9398   -0.0000 C   0  0  0  0  0  0  0  0  0  0  0  0
  1  2  1  0  0  0  0
  2  3  2  0  0  0  0
  2  4  1  0  0  0  0
  3  5  1  0  0  0  0
  4  6  2  0  0  0  0
  5  7  2  0  0  0  0
  7  8  1  0  0  0  0
  8  9  1  6  0  0  0
  8 10  1  0  0  0  0
  9 11  1  0  0  0  0
 10 12  1  0  0  0  0
 10 13  1  6  0  0  0
 11 14  2  0  0  0  0
 11 15  1  0  0  0  0
 12 16  2  0  0  0  0
 12 17  1  0  0  0  0
 13 18  1  0  0  0  0
 16 19  1  0  0  0  0
 17 20  2  0  0  0  0
 18 21  1  0  0  0  0
 18 22  1  0  0  0  0
 19 23  2  0  0  0  0
 21 24  2  0  0  0  0
 22 25  2  0  0  0  0
  6  7  1  0  0  0  0
 20 23  1  0  0  0  0
 24 25  1  0  0  0  0
M  END
>  <MolRegNo>
1589886

>  <m>
=

>  <Value>
110

>  <Unit>
nM

>  <Type>
Ki

>  <pValue>
6.96

>  <Ligand Efficiency>
0.38

>  <Binding Efficiency>
20.5

>  <Surface Efficiency>
12.21

>  <Assay Index>
803886

>  <Assay Category>


>  <Assay Organism>
Homo sapiens

>  <Target ID>
65

>  <Target Name>
Cytochrome P450 19A1

>  <Target Organism>
Homo sapiens

>  <Target Description>
Target is a single protein chain

>  <Sequence Accession>
P11511

>  <Reference>
Bioorg Med Chem Lett 23 (22), 6060-6063 (2013)

>  <Pubmed ID>
24113062

>  <DOI>
10.1016/j.bmcl.2013.09.030

$$$$
1589885
Actelion Java MolfileCreator 1.0

 22 24  0  0  0  0  0  0  0  0999 V2000
    0.0000   -0.0000   -0.0000 Br  0  0  0  0  0  0  0  0  0  0  0  0
    1.2866    0.7624   -0.0000 C   0  0  0  0  0  0  0  0  0  0  0  0
    2.5731    0.0238   -0.0000 C   0  0  0  0  0  0  0  0  0  0  0  0
    1.2747    2.2872   -0.0000 C   0  0  0  0  0  0  0  0  0  0  0  0
    3.8716    0.7862   -0.0000 C   0  0  0  0  0  0  0  0  0  0  0  0
    2.5612    3.0496   -0.0000 C   0  0  0  0  0  0  0  0  0  0  0  0
    3.8597    2.3110   -0.0000 C   0  0  0  0  0  0  0  0  0  0  0  0
    5.1463    3.0735   -0.0000 C   0  0  0  0  0  0  0  0  0  0  0  0
    5.1343    4.5864   -0.0000 C   0  0  0  0  0  0  0  0  0  0  0  0
    6.4447    2.3349   -0.0000 C   0  0  0  0  0  0  0  0  0  0  0  0
    3.8120    5.3488   -0.0000 O   0  0  0  0  0  0  0  0  0  0  0  0
    6.4209    5.3488   -0.0000 C   0  0  0  0  0  0  0  0  0  0  0  0
    6.4328    0.8458   -0.0000 N   0  0  0  0  0  0  0  0  0  0  0  0
    7.7075    4.6102   -0.0000 C   0  0  0  0  0  0  0  0  0  0  0  0
    6.3971    6.8498   -0.0000 C   0  0  0  0  0  0  0  0  0  0  0  0
    7.6479   -0.0119   -0.0000 N   0  0  0  0  0  0  0  0  0  0  0  0
    5.2177   -0.0238   -0.0000 C   0  0  0  0  0  0  0  0  0  0  0  0
    8.9940    5.3726   -0.0000 C   0  0  0  0  0  0  0  0  0  0  0  0
    7.6836    7.6241   -0.0000 C   0  0  0  0  0  0  0  0  0  0  0  0
    7.1833   -1.4295   -0.0000 N   0  0  0  0  0  0  0  0  0  0  0  0
    5.6704   -1.4414   -0.0000 C   0  0  0  0  0  0  0  0  0  0  0  0
    8.9821    6.8855   -0.0000 C   0  0  0  0  0  0  0  0  0  0  0  0
  1  2  1  0  0  0  0
  2  3  2  0  0  0  0
  2  4  1  0  0  0  0
  3  5  1  0  0  0  0
  4  6  2  0  0  0  0
  5  7  2  0  0  0  0
  7  8  1  0  0  0  0
  8  9  1  0  0  0  0
  8 10  1  6  0  0  0
  9 11  1  6  0  0  0
  9 12  1  0  0  0  0
 10 13  1  0  0  0  0
 12 14  2  0  0  0  0
 12 15  1  0  0  0  0
 13 16  1  0  0  0  0
 13 17  1  0  0  0  0
 14 18  1  0  0  0  0
 15 19  2  0  0  0  0
 16 20  2  0  0  0  0
 17 21  2  0  0  0  0
 18 22  2  0  0  0  0
  6  7  1  0  0  0  0
 19 22  1  0  0  0  0
 20 21  1  0  0  0  0
M  END
>  <MolRegNo>
1589885

>  <m>
=

>  <Value>
820

>  <Unit>
nM

>  <Type>
Ki

>  <pValue>
6.09

>  <Ligand Efficiency>
0.38

>  <Binding Efficiency>
16.99

>  <Surface Efficiency>
11.95

>  <Assay Index>
803886

>  <Assay Category>


>  <Assay Organism>
Homo sapiens

>  <Target ID>
65

>  <Target Name>
Cytochrome P450 19A1

>  <Target Organism>
Homo sapiens

>  <Target Description>
Target is a single protein chain

>  <Sequence Accession>
P11511

>  <Reference>
Bioorg Med Chem Lett 23 (22), 6060-6063 (2013)

>  <Pubmed ID>
24113062

>  <DOI>
10.1016/j.bmcl.2013.09.030

$$$$
1589884
Actelion Java MolfileCreator 1.0

 22 24  0  0  0  0  0  0  0  0999 V2000
    0.0000   -0.0000   -0.0000 Br  0  0  0  0  0  0  0  0  0  0  0  0
   -1.3094   -0.7499   -0.0000 C   0  0  0  0  0  0  0  0  0  0  0  0
   -1.3213   -2.2378   -0.0000 C   0  0  0  0  0  0  0  0  0  0  0  0
   -2.6306    0.0119   -0.0000 C   0  0  0  0  0  0  0  0  0  0  0  0
   -2.6306   -2.9758   -0.0000 C   0  0  0  0  0  0  0  0  0  0  0  0
   -3.9281   -0.7380   -0.0000 C   0  0  0  0  0  0  0  0  0  0  0  0
   -3.9400   -2.2140   -0.0000 C   0  0  0  0  0  0  0  0  0  0  0  0
   -5.2494   -2.9520   -0.0000 C   0  0  0  0  0  0  0  0  0  0  0  0
   -6.5587   -2.1902   -0.0000 O   0  0  0  0  0  0  0  0  0  0  0  0
   -5.2613   -4.4399   -0.0000 C   0  0  0  0  0  0  0  0  0  0  0  0
   -6.5706   -5.1779   -0.0000 C   0  0  0  0  0  0  0  0  0  0  0  0
   -3.9638   -5.1779   -0.0000 C   0  0  0  0  0  0  0  0  0  0  0  0
   -7.8800   -4.4161   -0.0000 C   0  0  0  0  0  0  0  0  0  0  0  0
   -6.5825   -6.6777   -0.0000 C   0  0  0  0  0  0  0  0  0  0  0  0
   -3.9757   -6.6658   -0.0000 N   0  0  0  0  0  0  0  0  0  0  0  0
   -9.1893   -5.1541   -0.0000 C   0  0  0  0  0  0  0  0  0  0  0  0
   -7.9038   -7.4158   -0.0000 C   0  0  0  0  0  0  0  0  0  0  0  0
   -2.7616   -7.5229   -0.0000 N   0  0  0  0  0  0  0  0  0  0  0  0
   -5.1898   -7.5348   -0.0000 C   0  0  0  0  0  0  0  0  0  0  0  0
   -9.2012   -6.6539   -0.0000 C   0  0  0  0  0  0  0  0  0  0  0  0
   -3.2377   -8.9394   -0.0000 N   0  0  0  0  0  0  0  0  0  0  0  0
   -4.7375   -8.9513   -0.0000 C   0  0  0  0  0  0  0  0  0  0  0  0
  1  2  1  0  0  0  0
  2  3  2  0  0  0  0
  2  4  1  0  0  0  0
  3  5  1  0  0  0  0
  4  6  2  0  0  0  0
  5  7  2  0  0  0  0
  7  8  1  0  0  0  0
  8  9  1  6  0  0  0
  8 10  1  0  0  0  0
 10 11  1  0  0  0  0
 10 12  1  6  0  0  0
 11 13  2  0  0  0  0
 11 14  1  0  0  0  0
 12 15  1  0  0  0  0
 13 16  1  0  0  0  0
 14 17  2  0  0  0  0
 15 18  1  0  0  0  0
 15 19  1  0  0  0  0
 16 20  2  0  0  0  0
 18 21  2  0  0  0  0
 19 22  2  0  0  0  0
  6  7  1  0  0  0  0
 17 20  1  0  0  0  0
 21 22  1  0  0  0  0
M  END
>  <MolRegNo>
1589884

>  <m>
=

>  <Value>
170

>  <Unit>
nM

>  <Type>
Ki

>  <pValue>
6.77

>  <Ligand Efficiency>
0.42

>  <Binding Efficiency>
18.9

>  <Surface Efficiency>
13.29

>  <Assay Index>
803886

>  <Assay Category>


>  <Assay Organism>
Homo sapiens

>  <Target ID>
65

>  <Target Name>
Cytochrome P450 19A1

>  <Target Organism>
Homo sapiens

>  <Target Description>
Target is a single protein chain

>  <Sequence Accession>
P11511

>  <Reference>
Bioorg Med Chem Lett 23 (22), 6060-6063 (2013)

>  <Pubmed ID>
24113062

>  <DOI>
10.1016/j.bmcl.2013.09.030

$$$$
1589883
Actelion Java MolfileCreator 1.0

 22 24  0  0  0  0  0  0  0  0999 V2000
    0.0000   -0.0000   -0.0000 F   0  0  0  0  0  0  0  0  0  0  0  0
   -1.3097   -0.7501   -0.0000 C   0  0  0  0  0  0  0  0  0  0  0  0
   -1.3216   -2.2385   -0.0000 C   0  0  0  0  0  0  0  0  0  0  0  0
   -2.6314    0.0119   -0.0000 C   0  0  0  0  0  0  0  0  0  0  0  0
   -2.6314   -2.9767   -0.0000 C   0  0  0  0  0  0  0  0  0  0  0  0
   -3.9292   -0.7382   -0.0000 C   0  0  0  0  0  0  0  0  0  0  0  0
   -3.9411   -2.2146   -0.0000 C   0  0  0  0  0  0  0  0  0  0  0  0
   -5.2509   -2.9529   -0.0000 C   0  0  0  0  0  0  0  0  0  0  0  0
   -6.5606   -2.1908   -0.0000 O   0  0  0  0  0  0  0  0  0  0  0  0
   -5.2628   -4.4412   -0.0000 C   0  0  0  0  0  0  0  0  0  0  0  0
   -6.5725   -5.1794   -0.0000 C   0  0  0  0  0  0  0  0  0  0  0  0
   -3.9768   -5.1794   -0.0000 C   0  0  0  0  0  0  0  0  0  0  0  0
   -7.8822   -4.4174   -0.0000 C   0  0  0  0  0  0  0  0  0  0  0  0
   -6.5844   -6.6797   -0.0000 C   0  0  0  0  0  0  0  0  0  0  0  0
   -3.9887   -6.6678   -0.0000 N   0  0  0  0  0  0  0  0  0  0  0  0
   -9.1920   -5.1556   -0.0000 C   0  0  0  0  0  0  0  0  0  0  0  0
   -7.9061   -7.4179   -0.0000 C   0  0  0  0  0  0  0  0  0  0  0  0
   -2.7743   -7.5250   -0.0000 N   0  0  0  0  0  0  0  0  0  0  0  0
   -5.2032   -7.5369   -0.0000 C   0  0  0  0  0  0  0  0  0  0  0  0
   -9.2039   -6.6559   -0.0000 C   0  0  0  0  0  0  0  0  0  0  0  0
   -3.2505   -8.9419   -0.0000 N   0  0  0  0  0  0  0  0  0  0  0  0
   -4.7508   -8.9538   -0.0000 C   0  0  0  0  0  0  0  0  0  0  0  0
  1  2  1  0  0  0  0
  2  3  2  0  0  0  0
  2  4  1  0  0  0  0
  3  5  1  0  0  0  0
  4  6  2  0  0  0  0
  5  7  2  0  0  0  0
  7  8  1  0  0  0  0
  8  9  1  6  0  0  0
  8 10  1  0  0  0  0
 10 11  1  0  0  0  0
 10 12  1  6  0  0  0
 11 13  2  0  0  0  0
 11 14  1  0  0  0  0
 12 15  1  0  0  0  0
 13 16  1  0  0  0  0
 14 17  2  0  0  0  0
 15 18  1  0  0  0  0
 15 19  1  0  0  0  0
 16 20  2  0  0  0  0
 18 21  2  0  0  0  0
 19 22  2  0  0  0  0
  6  7  1  0  0  0  0
 17 20  1  0  0  0  0
 21 22  1  0  0  0  0
M  END
>  <MolRegNo>
1589883

>  <m>
=

>  <Value>
330

>  <Unit>
nM

>  <Type>
Ki

>  <pValue>
6.48

>  <Ligand Efficiency>
0.4

>  <Binding Efficiency>
21.8

>  <Surface Efficiency>
12.72

>  <Assay Index>
803886

>  <Assay Category>


>  <Assay Organism>
Homo sapiens

>  <Target ID>
65

>  <Target Name>
Cytochrome P450 19A1

>  <Target Organism>
Homo sapiens

>  <Target Description>
Target is a single protein chain

>  <Sequence Accession>
P11511

>  <Reference>
Bioorg Med Chem Lett 23 (22), 6060-6063 (2013)

>  <Pubmed ID>
24113062

>  <DOI>
10.1016/j.bmcl.2013.09.030

$$$$
1589882
Actelion Java MolfileCreator 1.0

 25 27  0  0  0  0  0  0  0  0999 V2000
    0.0000   -0.0000   -0.0000 Br  0  0  0  0  0  0  0  0  0  0  0  0
    1.2861    0.7622   -0.0000 C   0  0  0  0  0  0  0  0  0  0  0  0
    2.5723    0.0238   -0.0000 C   0  0  0  0  0  0  0  0  0  0  0  0
    1.2742    2.2865   -0.0000 C   0  0  0  0  0  0  0  0  0  0  0  0
    3.8703    0.7860   -0.0000 C   0  0  0  0  0  0  0  0  0  0  0  0
    2.5604    3.0486   -0.0000 C   0  0  0  0  0  0  0  0  0  0  0  0
    3.8584    2.3103   -0.0000 C   0  0  0  0  0  0  0  0  0  0  0  0
    5.1446    3.0724   -0.0000 C   0  0  0  0  0  0  0  0  0  0  0  0
    5.1327    4.5849   -0.0000 C   0  0  0  0  0  0  0  0  0  0  0  0
    6.4307    2.3341   -0.0000 C   0  0  0  0  0  0  0  0  0  0  0  0
    3.8227    5.3470   -0.0000 O   0  0  0  0  0  0  0  0  0  0  0  0
    6.4188    5.3470   -0.0000 C   0  0  0  0  0  0  0  0  0  0  0  0
    6.4188    0.8455   -0.0000 N   0  0  0  0  0  0  0  0  0  0  0  0
    3.8108    6.8594   -0.0000 C   0  0  0  0  0  0  0  0  0  0  0  0
    7.7049    4.6087   -0.0000 C   0  0  0  0  0  0  0  0  0  0  0  0
    6.3950    6.8475   -0.0000 C   0  0  0  0  0  0  0  0  0  0  0  0
    7.6335   -0.0119   -0.0000 N   0  0  0  0  0  0  0  0  0  0  0  0
    5.2041   -0.0238   -0.0000 C   0  0  0  0  0  0  0  0  0  0  0  0
    2.5008    7.6216   -0.0000 O   0  0  0  0  0  0  0  0  0  0  0  0
    8.9911    5.3708   -0.0000 C   0  0  0  0  0  0  0  0  0  0  0  0
    7.6692    7.6216   -0.0000 C   0  0  0  0  0  0  0  0  0  0  0  0
    7.1571   -1.4290   -0.0000 N   0  0  0  0  0  0  0  0  0  0  0  0
    5.6566   -1.4410   -0.0000 C   0  0  0  0  0  0  0  0  0  0  0  0
    2.4889    9.1340   -0.0000 C   0  0  0  0  0  0  0  0  0  0  0  0
    8.9792    6.8832   -0.0000 C   0  0  0  0  0  0  0  0  0  0  0  0
  1  2  1  0  0  0  0
  2  3  2  0  0  0  0
  2  4  1  0  0  0  0
  3  5  1  0  0  0  0
  4  6  2  0  0  0  0
  5  7  2  0  0  0  0
  7  8  1  0  0  0  0
  8  9  1  0  0  0  0
  8 10  1  6  0  0  0
  9 11  1  6  0  0  0
  9 12  1  0  0  0  0
 10 13  1  0  0  0  0
 11 14  1  0  0  0  0
 12 15  2  0  0  0  0
 12 16  1  0  0  0  0
 13 17  1  0  0  0  0
 13 18  1  0  0  0  0
 14 19  1  0  0  0  0
 15 20  1  0  0  0  0
 16 21  2  0  0  0  0
 17 22  2  0  0  0  0
 18 23  2  0  0  0  0
 19 24  1  0  0  0  0
 20 25  2  0  0  0  0
  6  7  1  0  0  0  0
 21 25  1  0  0  0  0
 22 23  1  0  0  0  0
M  END
>  <MolRegNo>
1589882

>  <m>
=

>  <Value>
111

>  <Unit>
nM

>  <Type>
Ki

>  <pValue>
6.96

>  <Ligand Efficiency>
0.38

>  <Binding Efficiency>
17.29

>  <Surface Efficiency>
14.14

>  <Assay Index>
803886

>  <Assay Category>


>  <Assay Organism>
Homo sapiens

>  <Target ID>
65

>  <Target Name>
Cytochrome P450 19A1

>  <Target Organism>
Homo sapiens

>  <Target Description>
Target is a single protein chain

>  <Sequence Accession>
P11511

>  <Reference>
Bioorg Med Chem Lett 23 (22), 6060-6063 (2013)

>  <Pubmed ID>
24113062

>  <DOI>
10.1016/j.bmcl.2013.09.030

$$$$
1589881
Actelion Java MolfileCreator 1.0

 25 27  0  0  0  0  0  0  0  0999 V2000
    0.0000   -0.0000   -0.0000 Br  0  0  0  0  0  0  0  0  0  0  0  0
   -1.3086   -0.7495   -0.0000 C   0  0  0  0  0  0  0  0  0  0  0  0
   -1.3205   -2.2366   -0.0000 C   0  0  0  0  0  0  0  0  0  0  0  0
   -2.6292    0.0119   -0.0000 C   0  0  0  0  0  0  0  0  0  0  0  0
   -2.6292   -2.9742   -0.0000 C   0  0  0  0  0  0  0  0  0  0  0  0
   -3.9259   -0.7376   -0.0000 C   0  0  0  0  0  0  0  0  0  0  0  0
   -3.9378   -2.2128   -0.0000 C   0  0  0  0  0  0  0  0  0  0  0  0
   -5.2465   -2.9504   -0.0000 C   0  0  0  0  0  0  0  0  0  0  0  0
   -6.5551   -2.1890   -0.0000 O   0  0  0  0  0  0  0  0  0  0  0  0
   -5.2584   -4.4375   -0.0000 C   0  0  0  0  0  0  0  0  0  0  0  0
   -6.5670   -0.6781   -0.0000 C   0  0  0  0  0  0  0  0  0  0  0  0
   -6.5670   -5.1751   -0.0000 C   0  0  0  0  0  0  0  0  0  0  0  0
   -3.9735   -5.1751   -0.0000 C   0  0  0  0  0  0  0  0  0  0  0  0
   -7.8757    0.0833   -0.0000 O   0  0  0  0  0  0  0  0  0  0  0  0
   -7.8757   -4.4137   -0.0000 C   0  0  0  0  0  0  0  0  0  0  0  0
   -6.5789   -6.6741   -0.0000 C   0  0  0  0  0  0  0  0  0  0  0  0
   -3.9854   -6.6622   -0.0000 N   0  0  0  0  0  0  0  0  0  0  0  0
   -7.8876    1.5942   -0.0000 C   0  0  0  0  0  0  0  0  0  0  0  0
   -9.1843   -5.1513   -0.0000 C   0  0  0  0  0  0  0  0  0  0  0  0
   -7.8995   -7.4117   -0.0000 C   0  0  0  0  0  0  0  0  0  0  0  0
   -2.7719   -7.5188   -0.0000 N   0  0  0  0  0  0  0  0  0  0  0  0
   -5.1989   -7.5307   -0.0000 C   0  0  0  0  0  0  0  0  0  0  0  0
   -9.1962   -6.6384   -0.0000 C   0  0  0  0  0  0  0  0  0  0  0  0
   -3.2478   -8.9345   -0.0000 N   0  0  0  0  0  0  0  0  0  0  0  0
   -4.7468   -8.9464   -0.0000 C   0  0  0  0  0  0  0  0  0  0  0  0
  1  2  1  0  0  0  0
  2  3  2  0  0  0  0
  2  4  1  0  0  0  0
  3  5  1  0  0  0  0
  4  6  2  0  0  0  0
  5  7  2  0  0  0  0
  7  8  1  0  0  0  0
  8  9  1  6  0  0  0
  8 10  1  0  0  0  0
  9 11  1  0  0  0  0
 10 12  1  0  0  0  0
 10 13  1  6  0  0  0
 11 14  1  0  0  0  0
 12 15  2  0  0  0  0
 12 16  1  0  0  0  0
 13 17  1  0  0  0  0
 14 18  1  0  0  0  0
 15 19  1  0  0  0  0
 16 20  2  0  0  0  0
 17 21  1  0  0  0  0
 17 22  1  0  0  0  0
 19 23  2  0  0  0  0
 21 24  2  0  0  0  0
 22 25  2  0  0  0  0
  6  7  1  0  0  0  0
 20 23  1  0  0  0  0
 24 25  1  0  0  0  0
M  END
>  <MolRegNo>
1589881

>  <m>
=

>  <Value>
20

>  <Unit>
nM

>  <Type>
Ki

>  <pValue>
7.7

>  <Ligand Efficiency>
0.42

>  <Binding Efficiency>
19.14

>  <Surface Efficiency>
15.66

>  <Assay Index>
803886

>  <Assay Category>


>  <Assay Organism>
Homo sapiens

>  <Target ID>
65

>  <Target Name>
Cytochrome P450 19A1

>  <Target Organism>
Homo sapiens

>  <Target Description>
Target is a single protein chain

>  <Sequence Accession>
P11511

>  <Reference>
Bioorg Med Chem Lett 23 (22), 6060-6063 (2013)

>  <Pubmed ID>
24113062

>  <DOI>
10.1016/j.bmcl.2013.09.030

$$$$
1589898
Actelion Java MolfileCreator 1.0

 25 27  0  0  0  0  0  0  0  0999 V2000
    0.0000   -0.0000   -0.0000 F   0  0  0  0  0  0  0  0  0  0  0  0
   -1.3078   -0.7490   -0.0000 C   0  0  0  0  0  0  0  0  0  0  0  0
   -1.3197   -2.2351   -0.0000 C   0  0  0  0  0  0  0  0  0  0  0  0
   -2.6275    0.0119   -0.0000 C   0  0  0  0  0  0  0  0  0  0  0  0
   -2.6275   -2.9723   -0.0000 C   0  0  0  0  0  0  0  0  0  0  0  0
   -3.9234   -0.7371   -0.0000 C   0  0  0  0  0  0  0  0  0  0  0  0
   -3.9353   -2.2114   -0.0000 C   0  0  0  0  0  0  0  0  0  0  0  0
   -5.2430   -2.9485   -0.0000 C   0  0  0  0  0  0  0  0  0  0  0  0
   -6.5627   -2.1876   -0.0000 O   0  0  0  0  0  0  0  0  0  0  0  0
   -5.2549   -4.4346   -0.0000 C   0  0  0  0  0  0  0  0  0  0  0  0
   -6.5746   -0.6777   -0.0000 C   0  0  0  0  0  0  0  0  0  0  0  0
   -6.5627   -5.1717   -0.0000 C   0  0  0  0  0  0  0  0  0  0  0  0
   -3.9590   -5.1717   -0.0000 C   0  0  0  0  0  0  0  0  0  0  0  0
   -7.8824    0.0832   -0.0000 O   0  0  0  0  0  0  0  0  0  0  0  0
   -7.8705   -4.4108   -0.0000 C   0  0  0  0  0  0  0  0  0  0  0  0
   -6.5746   -6.6697   -0.0000 C   0  0  0  0  0  0  0  0  0  0  0  0
   -3.9709   -6.6578   -0.0000 N   0  0  0  0  0  0  0  0  0  0  0  0
   -7.8943    1.5931   -0.0000 C   0  0  0  0  0  0  0  0  0  0  0  0
   -9.1783   -5.1479   -0.0000 C   0  0  0  0  0  0  0  0  0  0  0  0
   -7.8943   -7.4068   -0.0000 C   0  0  0  0  0  0  0  0  0  0  0  0
   -2.7582   -7.5138   -0.0000 N   0  0  0  0  0  0  0  0  0  0  0  0
   -5.1836   -7.5257   -0.0000 C   0  0  0  0  0  0  0  0  0  0  0  0
   -9.1902   -6.6460   -0.0000 C   0  0  0  0  0  0  0  0  0  0  0  0
   -3.2338   -8.9286   -0.0000 N   0  0  0  0  0  0  0  0  0  0  0  0
   -4.7318   -8.9405   -0.0000 C   0  0  0  0  0  0  0  0  0  0  0  0
  1  2  1  0  0  0  0
  2  3  2  0  0  0  0
  2  4  1  0  0  0  0
  3  5  1  0  0  0  0
  4  6  2  0  0  0  0
  5  7  2  0  0  0  0
  7  8  1  0  0  0  0
  8  9  1  6  0  0  0
  8 10  1  0  0  0  0
  9 11  1  0  0  0  0
 10 12  1  0  0  0  0
 10 13  1  6  0  0  0
 11 14  1  0  0  0  0
 12 15  2  0  0  0  0
 12 16  1  0  0  0  0
 13 17  1  0  0  0  0
 14 18  1  0  0  0  0
 15 19  1  0  0  0  0
 16 20  2  0  0  0  0
 17 21  1  0  0  0  0
 17 22  1  0  0  0  0
 19 23  2  0  0  0  0
 21 24  2  0  0  0  0
 22 25  2  0  0  0  0
  6  7  1  0  0  0  0
 20 23  1  0  0  0  0
 24 25  1  0  0  0  0
M  END
>  <MolRegNo>
1589898

>  <m>
=

>  <Value>
80

>  <Unit>
nM

>  <Type>
Ki

>  <pValue>
7.1

>  <Ligand Efficiency>
0.39

>  <Binding Efficiency>
20.79

>  <Surface Efficiency>
14.43

>  <Assay Index>
803886

>  <Assay Category>


>  <Assay Organism>
Homo sapiens

>  <Target ID>
65

>  <Target Name>
Cytochrome P450 19A1

>  <Target Organism>
Homo sapiens

>  <Target Description>
Target is a single protein chain

>  <Sequence Accession>
P11511

>  <Reference>
Bioorg Med Chem Lett 23 (22), 6060-6063 (2013)

>  <Pubmed ID>
24113062

>  <DOI>
10.1016/j.bmcl.2013.09.030

$$$$
1787337
Actelion Java MolfileCreator 1.0

 26 29  0  0  0  0  0  0  0  0999 V2000
    0.0000   -0.0000   -0.0000 O   0  0  0  0  0  0  0  0  0  0  0  0
    1.1544    0.9542   -0.0000 C   0  0  0  0  0  0  0  0  0  0  0  0
    2.5445    0.4241   -0.0000 O   0  0  0  0  0  0  0  0  0  0  0  0
    0.8364    2.4267   -0.0000 C   0  0  0  0  0  0  0  0  0  0  0  0
    2.7683   -1.0366   -0.0000 C   0  0  0  0  0  0  0  0  0  0  0  0
    1.8259    3.5458   -0.0000 N   0  0  0  0  0  0  0  0  0  0  0  0
   -0.5419    3.0510   -0.0000 C   0  0  0  0  0  0  0  0  0  0  0  0
    4.1584   -1.5668   -0.0000 C   0  0  0  0  0  0  0  0  0  0  0  0
    1.0720    4.8534   -0.0000 N   0  0  0  0  0  0  0  0  0  0  0  0
   -0.4005    4.5471   -0.0000 N   0  0  0  0  0  0  0  0  0  0  0  0
   -1.8495    2.3089   -0.0000 C   0  0  0  0  0  0  0  0  0  0  0  0
   -1.5196    5.5602   -0.0000 C   0  0  0  0  0  0  0  0  0  0  0  0
   -3.1571    3.0746   -0.0000 C   0  0  0  0  0  0  0  0  0  0  0  0
   -1.8613    0.8246   -0.0000 C   0  0  0  0  0  0  0  0  0  0  0  0
   -1.2251    7.0327   -0.0000 C   0  0  0  0  0  0  0  0  0  0  0  0
   -4.4647    2.3325   -0.0000 C   0  0  0  0  0  0  0  0  0  0  0  0
   -3.1688    0.0942   -0.0000 C   0  0  0  0  0  0  0  0  0  0  0  0
   -2.3442    8.0458   -0.0000 C   0  0  0  0  0  0  0  0  0  0  0  0
    0.1885    7.5039   -0.0000 C   0  0  0  0  0  0  0  0  0  0  0  0
   -5.9018    2.8037   -0.0000 O   0  0  0  0  0  0  0  0  0  0  0  0
   -4.4764    0.8482   -0.0000 C   0  0  0  0  0  0  0  0  0  0  0  0
   -2.0497    9.5183   -0.0000 C   0  0  0  0  0  0  0  0  0  0  0  0
    0.4830    8.9764   -0.0000 C   0  0  0  0  0  0  0  0  0  0  0  0
   -6.7971    1.6021   -0.0000 C   0  0  0  0  0  0  0  0  0  0  0  0
   -5.9136    0.4005   -0.0000 O   0  0  0  0  0  0  0  0  0  0  0  0
   -0.6361    9.9895   -0.0000 C   0  0  0  0  0  0  0  0  0  0  0  0
  1  2  2  0  0  0  0
  2  3  1  0  0  0  0
  2  4  1  0  0  0  0
  3  5  1  0  0  0  0
  4  6  1  0  0  0  0
  4  7  2  0  0  0  0
  5  8  1  0  0  0  0
  6  9  2  0  0  0  0
  7 10  1  0  0  0  0
  7 11  1  0  0  0  0
 10 12  1  0  0  0  0
 11 13  2  0  0  0  0
 11 14  1  0  0  0  0
 12 15  1  0  0  0  0
 13 16  1  0  0  0  0
 14 17  2  0  0  0  0
 15 18  2  0  0  0  0
 15 19  1  0  0  0  0
 16 20  1  0  0  0  0
 16 21  2  0  0  0  0
 18 22  1  0  0  0  0
 19 23  2  0  0  0  0
 20 24  1  0  0  0  0
 21 25  1  0  0  0  0
 22 26  2  0  0  0  0
  9 10  1  0  0  0  0
 17 21  1  0  0  0  0
 23 26  1  0  0  0  0
 24 25  1  0  0  0  0
M  END
>  <MolRegNo>
1787337

>  <m>
=

>  <Value>
707.95

>  <Unit>
nM

>  <Type>
Ki

>  <pValue>
6.15

>  <Ligand Efficiency>
0.32

>  <Binding Efficiency>
17.5

>  <Surface Efficiency>
8.15

>  <Assay Index>
897972

>  <Assay Category>


>  <Assay Organism>
Homo sapiens

>  <Target ID>
65

>  <Target Name>
Cytochrome P450 19A1

>  <Target Organism>
Homo sapiens

>  <Target Description>
Target is a single protein chain

>  <Sequence Accession>
P11511

>  <Reference>
Bioorg Med Chem Lett 24 (18), 4586-4589 (2014)

>  <Pubmed ID>
25155384

>  <DOI>
10.1016/j.bmcl.2014.07.083

$$$$
1787336
Actelion Java MolfileCreator 1.0

 24 26  0  0  0  0  0  0  0  0999 V2000
    0.0000   -0.0000   -0.0000 O   0  0  0  0  0  0  0  0  0  0  0  0
   -1.1824    0.9577   -0.0000 C   0  0  0  0  0  0  0  0  0  0  0  0
   -0.9577    2.4475   -0.0000 O   0  0  0  0  0  0  0  0  0  0  0  0
   -2.5658    0.3547   -0.0000 C   0  0  0  0  0  0  0  0  0  0  0  0
    0.4375    3.0033   -0.0000 C   0  0  0  0  0  0  0  0  0  0  0  0
   -3.8782    1.1114   -0.0000 N   0  0  0  0  0  0  0  0  0  0  0  0
   -2.8850   -1.0996   -0.0000 C   0  0  0  0  0  0  0  0  0  0  0  0
    0.6621    4.4931   -0.0000 C   0  0  0  0  0  0  0  0  0  0  0  0
   -5.0015    0.1182   -0.0000 N   0  0  0  0  0  0  0  0  0  0  0  0
   -4.3866   -1.2415   -0.0000 N   0  0  0  0  0  0  0  0  0  0  0  0
   -1.8918   -2.1992   -0.0000 C   0  0  0  0  0  0  0  0  0  0  0  0
   -5.1434   -2.5303   -0.0000 C   0  0  0  0  0  0  0  0  0  0  0  0
   -0.4375   -1.8800   -0.0000 C   0  0  0  0  0  0  0  0  0  0  0  0
   -2.3648   -3.6181   -0.0000 C   0  0  0  0  0  0  0  0  0  0  0  0
   -6.6568   -2.5185   -0.0000 C   0  0  0  0  0  0  0  0  0  0  0  0
    0.5557   -2.9796   -0.0000 C   0  0  0  0  0  0  0  0  0  0  0  0
   -1.3716   -4.7177   -0.0000 C   0  0  0  0  0  0  0  0  0  0  0  0
   -7.4136   -3.8073   -0.0000 C   0  0  0  0  0  0  0  0  0  0  0  0
   -7.4136   -1.2060   -0.0000 C   0  0  0  0  0  0  0  0  0  0  0  0
    0.0828   -4.3985   -0.0000 C   0  0  0  0  0  0  0  0  0  0  0  0
   -8.9270   -3.7955   -0.0000 C   0  0  0  0  0  0  0  0  0  0  0  0
   -8.9270   -1.1942   -0.0000 C   0  0  0  0  0  0  0  0  0  0  0  0
    1.0760   -5.4981   -0.0000 C   0  0  0  0  0  0  0  0  0  0  0  0
   -9.6837   -2.4830   -0.0000 C   0  0  0  0  0  0  0  0  0  0  0  0
  1  2  2  0  0  0  0
  2  3  1  0  0  0  0
  2  4  1  0  0  0  0
  3  5  1  0  0  0  0
  4  6  1  0  0  0  0
  4  7  2  0  0  0  0
  5  8  1  0  0  0  0
  6  9  2  0  0  0  0
  7 10  1  0  0  0  0
  7 11  1  0  0  0  0
 10 12  1  0  0  0  0
 11 13  2  0  0  0  0
 11 14  1  0  0  0  0
 12 15  1  0  0  0  0
 13 16  1  0  0  0  0
 14 17  2  0  0  0  0
 15 18  2  0  0  0  0
 15 19  1  0  0  0  0
 16 20  2  0  0  0  0
 18 21  1  0  0  0  0
 19 22  2  0  0  0  0
 20 23  1  0  0  0  0
 21 24  2  0  0  0  0
  9 10  1  0  0  0  0
 17 20  1  0  0  0  0
 22 24  1  0  0  0  0
M  END
>  <MolRegNo>
1787336

>  <m>
=

>  <Value>
707.95

>  <Unit>
nM

>  <Type>
Ki

>  <pValue>
6.15

>  <Ligand Efficiency>
0.35

>  <Binding Efficiency>
19.14

>  <Surface Efficiency>
10.79

>  <Assay Index>
897972

>  <Assay Category>


>  <Assay Organism>
Homo sapiens

>  <Target ID>
65

>  <Target Name>
Cytochrome P450 19A1

>  <Target Organism>
Homo sapiens

>  <Target Description>
Target is a single protein chain

>  <Sequence Accession>
P11511

>  <Reference>
Bioorg Med Chem Lett 24 (18), 4586-4589 (2014)

>  <Pubmed ID>
25155384

>  <DOI>
10.1016/j.bmcl.2014.07.083

$$$$
1787335
Actelion Java MolfileCreator 1.0

 25 27  0  0  0  0  0  0  0  0999 V2000
    0.0000   -0.0000   -0.0000 Br  0  0  0  0  0  0  0  0  0  0  0  0
    0.7344    1.3149   -0.0000 C   0  0  0  0  0  0  0  0  0  0  0  0
    2.2270    1.3267   -0.0000 C   0  0  0  0  0  0  0  0  0  0  0  0
   -0.0237    2.6298   -0.0000 C   0  0  0  0  0  0  0  0  0  0  0  0
    2.9614    2.6416   -0.0000 C   0  0  0  0  0  0  0  0  0  0  0  0
    0.7107    3.9446   -0.0000 C   0  0  0  0  0  0  0  0  0  0  0  0
    2.2033    3.9565   -0.0000 C   0  0  0  0  0  0  0  0  0  0  0  0
    4.4540    2.6534   -0.0000 C   0  0  0  0  0  0  0  0  0  0  0  0
    5.1884    3.9683   -0.0000 N   0  0  0  0  0  0  0  0  0  0  0  0
    4.5606    5.3543   -0.0000 N   0  0  0  0  0  0  0  0  0  0  0  0
    6.6691    4.1342   -0.0000 C   0  0  0  0  0  0  0  0  0  0  0  0
    5.6623    6.3730   -0.0000 N   0  0  0  0  0  0  0  0  0  0  0  0
    7.6642    3.0325   -0.0000 C   0  0  0  0  0  0  0  0  0  0  0  0
    6.9653    5.6149   -0.0000 C   0  0  0  0  0  0  0  0  0  0  0  0
    9.1212    3.3523   -0.0000 C   0  0  0  0  0  0  0  0  0  0  0  0
    7.1904    1.6110   -0.0000 C   0  0  0  0  0  0  0  0  0  0  0  0
    8.3275    6.2427   -0.0000 C   0  0  0  0  0  0  0  0  0  0  0  0
   10.1162    2.2507   -0.0000 C   0  0  0  0  0  0  0  0  0  0  0  0
    8.1854    0.5094   -0.0000 C   0  0  0  0  0  0  0  0  0  0  0  0
    9.4884    5.3069   -0.0000 O   0  0  0  0  0  0  0  0  0  0  0  0
    8.5526    7.7353   -0.0000 O   0  0  0  0  0  0  0  0  0  0  0  0
    9.6424    0.8292   -0.0000 C   0  0  0  0  0  0  0  0  0  0  0  0
    9.9504    8.2920   -0.0000 C   0  0  0  0  0  0  0  0  0  0  0  0
   10.6375   -0.2725   -0.0000 Br  0  0  0  0  0  0  0  0  0  0  0  0
   10.1755    9.7846   -0.0000 C   0  0  0  0  0  0  0  0  0  0  0  0
  1  2  1  0  0  0  0
  2  3  2  0  0  0  0
  2  4  1  0  0  0  0
  3  5  1  0  0  0  0
  4  6  2  0  0  0  0
  5  7  2  0  0  0  0
  5  8  1  0  0  0  0
  8  9  1  0  0  0  0
  9 10  1  0  0  0  0
  9 11  1  0  0  0  0
 10 12  2  0  0  0  0
 11 13  1  0  0  0  0
 11 14  2  0  0  0  0
 13 15  2  0  0  0  0
 13 16  1  0  0  0  0
 14 17  1  0  0  0  0
 15 18  1  0  0  0  0
 16 19  2  0  0  0  0
 17 20  2  0  0  0  0
 17 21  1  0  0  0  0
 18 22  2  0  0  0  0
 21 23  1  0  0  0  0
 22 24  1  0  0  0  0
 23 25  1  0  0  0  0
  6  7  1  0  0  0  0
 12 14  1  0  0  0  0
 19 22  1  0  0  0  0
M  END
>  <MolRegNo>
1787335

>  <m>
=

>  <Value>
20

>  <Unit>
nM

>  <Type>
Ki

>  <pValue>
7.7

>  <Ligand Efficiency>
0.42

>  <Binding Efficiency>
16.55

>  <Surface Efficiency>
13.5

>  <Assay Index>
897974

>  <Assay Category>


>  <Assay Organism>
Homo sapiens

>  <Target ID>
65

>  <Target Name>
Cytochrome P450 19A1

>  <Target Organism>
Homo sapiens

>  <Target Description>
Target is a single protein chain

>  <Sequence Accession>
P11511

>  <Reference>
Bioorg Med Chem Lett 24 (18), 4586-4589 (2014)

>  <Pubmed ID>
25155384

>  <DOI>
10.1016/j.bmcl.2014.07.083

$$$$
1787334
Actelion Java MolfileCreator 1.0

 24 26  0  0  0  0  0  0  0  0999 V2000
    0.0000   -0.0000   -0.0000 Br  0  0  0  0  0  0  0  0  0  0  0  0
   -1.0116    1.1174   -0.0000 C   0  0  0  0  0  0  0  0  0  0  0  0
   -0.5646    2.5525   -0.0000 C   0  0  0  0  0  0  0  0  0  0  0  0
   -2.4819    0.8234   -0.0000 C   0  0  0  0  0  0  0  0  0  0  0  0
   -1.5762    3.6699   -0.0000 C   0  0  0  0  0  0  0  0  0  0  0  0
   -3.4935    1.9408   -0.0000 C   0  0  0  0  0  0  0  0  0  0  0  0
   -3.0465    3.3758   -0.0000 C   0  0  0  0  0  0  0  0  0  0  0  0
   -4.0581    4.4933   -0.0000 C   0  0  0  0  0  0  0  0  0  0  0  0
   -5.5519    4.3521   -0.0000 N   0  0  0  0  0  0  0  0  0  0  0  0
   -3.7640    5.9636   -0.0000 C   0  0  0  0  0  0  0  0  0  0  0  0
   -6.1753    5.7283   -0.0000 N   0  0  0  0  0  0  0  0  0  0  0  0
   -6.3047    3.0700   -0.0000 C   0  0  0  0  0  0  0  0  0  0  0  0
   -5.0696    6.7164   -0.0000 N   0  0  0  0  0  0  0  0  0  0  0  0
   -2.4113    6.5870   -0.0000 C   0  0  0  0  0  0  0  0  0  0  0  0
   -7.8103    3.0818   -0.0000 C   0  0  0  0  0  0  0  0  0  0  0  0
   -1.2586    5.6578   -0.0000 O   0  0  0  0  0  0  0  0  0  0  0  0
   -2.1878    8.0691   -0.0000 O   0  0  0  0  0  0  0  0  0  0  0  0
   -8.5749    1.7997   -0.0000 C   0  0  0  0  0  0  0  0  0  0  0  0
   -8.5749    4.3874   -0.0000 C   0  0  0  0  0  0  0  0  0  0  0  0
   -0.7999    8.6219   -0.0000 C   0  0  0  0  0  0  0  0  0  0  0  0
  -10.0805    1.8114   -0.0000 C   0  0  0  0  0  0  0  0  0  0  0  0
  -10.0805    4.3992   -0.0000 C   0  0  0  0  0  0  0  0  0  0  0  0
   -0.5764   10.1040   -0.0000 C   0  0  0  0  0  0  0  0  0  0  0  0
  -10.8333    3.1171   -0.0000 C   0  0  0  0  0  0  0  0  0  0  0  0
  1  2  1  0  0  0  0
  2  3  2  0  0  0  0
  2  4  1  0  0  0  0
  3  5  1  0  0  0  0
  4  6  2  0  0  0  0
  5  7  2  0  0  0  0
  7  8  1  0  0  0  0
  8  9  1  0  0  0  0
  8 10  2  0  0  0  0
  9 11  1  0  0  0  0
  9 12  1  0  0  0  0
 10 13  1  0  0  0  0
 10 14  1  0  0  0  0
 12 15  1  0  0  0  0
 14 16  2  0  0  0  0
 14 17  1  0  0  0  0
 15 18  2  0  0  0  0
 15 19  1  0  0  0  0
 17 20  1  0  0  0  0
 18 21  1  0  0  0  0
 19 22  2  0  0  0  0
 20 23  1  0  0  0  0
 21 24  2  0  0  0  0
  6  7  1  0  0  0  0
 11 13  2  0  0  0  0
 22 24  1  0  0  0  0
M  END
>  <MolRegNo>
1787334

>  <m>
=

>  <Value>
640

>  <Unit>
nM

>  <Type>
Ki

>  <pValue>
6.19

>  <Ligand Efficiency>
0.35

>  <Binding Efficiency>
16.04

>  <Surface Efficiency>
10.86

>  <Assay Index>
897974

>  <Assay Category>


>  <Assay Organism>
Homo sapiens

>  <Target ID>
65

>  <Target Name>
Cytochrome P450 19A1

>  <Target Organism>
Homo sapiens

>  <Target Description>
Target is a single protein chain

>  <Sequence Accession>
P11511

>  <Reference>
Bioorg Med Chem Lett 24 (18), 4586-4589 (2014)

>  <Pubmed ID>
25155384

>  <DOI>
10.1016/j.bmcl.2014.07.083

$$$$
1787333
Actelion Java MolfileCreator 1.0

 23 25  0  0  0  0  0  0  0  0999 V2000
    0.0000   -0.0000   -0.0000 O   0  0  0  0  0  0  0  0  0  0  0  0
    0.2249   -1.4678   -0.0000 C   0  0  0  0  0  0  0  0  0  0  0  0
   -0.9588   -2.4030   -0.0000 O   0  0  0  0  0  0  0  0  0  0  0  0
    1.6454   -1.9176   -0.0000 C   0  0  0  0  0  0  0  0  0  0  0  0
   -2.3793   -1.8466   -0.0000 C   0  0  0  0  0  0  0  0  0  0  0  0
    2.0952   -3.3381   -0.0000 N   0  0  0  0  0  0  0  0  0  0  0  0
    2.8528   -1.0180   -0.0000 C   0  0  0  0  0  0  0  0  0  0  0  0
   -3.5630   -2.7818   -0.0000 C   0  0  0  0  0  0  0  0  0  0  0  0
    3.5867   -3.3263   -0.0000 N   0  0  0  0  0  0  0  0  0  0  0  0
    4.0602   -1.8940   -0.0000 N   0  0  0  0  0  0  0  0  0  0  0  0
    2.8409    0.4972   -0.0000 C   0  0  0  0  0  0  0  0  0  0  0  0
    5.4806   -1.4205   -0.0000 C   0  0  0  0  0  0  0  0  0  0  0  0
    1.5270    1.2547   -0.0000 C   0  0  0  0  0  0  0  0  0  0  0  0
    4.1312    1.2547   -0.0000 C   0  0  0  0  0  0  0  0  0  0  0  0
    6.5815   -2.4148   -0.0000 C   0  0  0  0  0  0  0  0  0  0  0  0
    1.5152    2.7699   -0.0000 C   0  0  0  0  0  0  0  0  0  0  0  0
    4.1194    2.7699   -0.0000 C   0  0  0  0  0  0  0  0  0  0  0  0
    8.0020   -1.9413   -0.0000 C   0  0  0  0  0  0  0  0  0  0  0  0
    6.2619   -3.8708   -0.0000 C   0  0  0  0  0  0  0  0  0  0  0  0
    2.8054    3.5275   -0.0000 C   0  0  0  0  0  0  0  0  0  0  0  0
    9.1028   -2.9356   -0.0000 C   0  0  0  0  0  0  0  0  0  0  0  0
    7.3628   -4.8651   -0.0000 C   0  0  0  0  0  0  0  0  0  0  0  0
    8.7832   -4.3916   -0.0000 C   0  0  0  0  0  0  0  0  0  0  0  0
  1  2  2  0  0  0  0
  2  3  1  0  0  0  0
  2  4  1  0  0  0  0
  3  5  1  0  0  0  0
  4  6  1  0  0  0  0
  4  7  2  0  0  0  0
  5  8  1  0  0  0  0
  6  9  2  0  0  0  0
  7 10  1  0  0  0  0
  7 11  1  0  0  0  0
 10 12  1  0  0  0  0
 11 13  2  0  0  0  0
 11 14  1  0  0  0  0
 12 15  1  0  0  0  0
 13 16  1  0  0  0  0
 14 17  2  0  0  0  0
 15 18  2  0  0  0  0
 15 19  1  0  0  0  0
 16 20  2  0  0  0  0
 18 21  1  0  0  0  0
 19 22  2  0  0  0  0
 21 23  2  0  0  0  0
  9 10  1  0  0  0  0
 17 20  1  0  0  0  0
 22 23  1  0  0  0  0
M  END
>  <MolRegNo>
1787333

>  <m>
=

>  <Value>
1410

>  <Unit>
nM

>  <Type>
Ki

>  <pValue>
5.85

>  <Ligand Efficiency>
0.35

>  <Binding Efficiency>
19.04

>  <Surface Efficiency>
10.26

>  <Assay Index>
897973

>  <Assay Category>


>  <Assay Organism>
Homo sapiens

>  <Target ID>
65

>  <Target Name>
Cytochrome P450 19A1

>  <Target Organism>
Homo sapiens

>  <Target Description>
Target is a single protein chain

>  <Sequence Accession>
P11511

>  <Reference>
Bioorg Med Chem Lett 24 (18), 4586-4589 (2014)

>  <Pubmed ID>
25155384

>  <DOI>
10.1016/j.bmcl.2014.07.083

$$$$
1787340
Actelion Java MolfileCreator 1.0

 24 26  0  0  0  0  0  0  0  0999 V2000
    0.0000   -0.0000   -0.0000 Br  0  0  0  0  0  0  0  0  0  0  0  0
   -1.3057   -0.7411   -0.0000 C   0  0  0  0  0  0  0  0  0  0  0  0
   -2.6114    0.0235   -0.0000 C   0  0  0  0  0  0  0  0  0  0  0  0
   -1.3174   -2.2232   -0.0000 C   0  0  0  0  0  0  0  0  0  0  0  0
   -3.9171   -0.7175   -0.0000 C   0  0  0  0  0  0  0  0  0  0  0  0
   -2.6231   -2.9525   -0.0000 C   0  0  0  0  0  0  0  0  0  0  0  0
   -3.9288   -2.1997   -0.0000 C   0  0  0  0  0  0  0  0  0  0  0  0
   -5.2227    0.0471   -0.0000 C   0  0  0  0  0  0  0  0  0  0  0  0
   -6.5284   -0.6940   -0.0000 N   0  0  0  0  0  0  0  0  0  0  0  0
   -6.6931   -2.1644   -0.0000 N   0  0  0  0  0  0  0  0  0  0  0  0
   -7.9047   -0.0706   -0.0000 C   0  0  0  0  0  0  0  0  0  0  0  0
   -8.1635   -2.4584   -0.0000 N   0  0  0  0  0  0  0  0  0  0  0  0
   -8.2223    1.3998   -0.0000 C   0  0  0  0  0  0  0  0  0  0  0  0
   -8.9163   -1.1645   -0.0000 C   0  0  0  0  0  0  0  0  0  0  0  0
   -9.6574    1.8703   -0.0000 C   0  0  0  0  0  0  0  0  0  0  0  0
   -7.1283    2.4114   -0.0000 C   0  0  0  0  0  0  0  0  0  0  0  0
  -10.4102   -0.9998   -0.0000 C   0  0  0  0  0  0  0  0  0  0  0  0
   -9.9750    3.3407   -0.0000 C   0  0  0  0  0  0  0  0  0  0  0  0
   -7.4459    3.8818   -0.0000 C   0  0  0  0  0  0  0  0  0  0  0  0
  -10.9630    0.4117   -0.0000 O   0  0  0  0  0  0  0  0  0  0  0  0
  -11.3630   -2.1526   -0.0000 O   0  0  0  0  0  0  0  0  0  0  0  0
   -8.8810    4.3523   -0.0000 C   0  0  0  0  0  0  0  0  0  0  0  0
  -12.8451   -1.9056   -0.0000 C   0  0  0  0  0  0  0  0  0  0  0  0
  -13.7979   -3.0584   -0.0000 C   0  0  0  0  0  0  0  0  0  0  0  0
  1  2  1  0  0  0  0
  2  3  2  0  0  0  0
  2  4  1  0  0  0  0
  3  5  1  0  0  0  0
  4  6  2  0  0  0  0
  5  7  2  0  0  0  0
  5  8  1  0  0  0  0
  8  9  1  0  0  0  0
  9 10  1  0  0  0  0
  9 11  1  0  0  0  0
 10 12  2  0  0  0  0
 11 13  1  0  0  0  0
 11 14  2  0  0  0  0
 13 15  2  0  0  0  0
 13 16  1  0  0  0  0
 14 17  1  0  0  0  0
 15 18  1  0  0  0  0
 16 19  2  0  0  0  0
 17 20  2  0  0  0  0
 17 21  1  0  0  0  0
 18 22  2  0  0  0  0
 21 23  1  0  0  0  0
 23 24  1  0  0  0  0
  6  7  1  0  0  0  0
 12 14  1  0  0  0  0
 19 22  1  0  0  0  0
M  END
>  <MolRegNo>
1787340

>  <m>
=

>  <Value>
150

>  <Unit>
nM

>  <Type>
Ki

>  <pValue>
6.82

>  <Ligand Efficiency>
0.39

>  <Binding Efficiency>
17.67

>  <Surface Efficiency>
11.97

>  <Assay Index>
897972

>  <Assay Category>


>  <Assay Organism>
Homo sapiens

>  <Target ID>
65

>  <Target Name>
Cytochrome P450 19A1

>  <Target Organism>
Homo sapiens

>  <Target Description>
Target is a single protein chain

>  <Sequence Accession>
P11511

>  <Reference>
Bioorg Med Chem Lett 24 (18), 4586-4589 (2014)

>  <Pubmed ID>
25155384

>  <DOI>
10.1016/j.bmcl.2014.07.083

$$$$
1787339
Actelion Java MolfileCreator 1.0

 24 26  0  0  0  0  0  0  0  0999 V2000
    0.0000   -0.0000   -0.0000 Cl  0  0  0  0  0  0  0  0  0  0  0  0
   -1.0116    1.1174   -0.0000 C   0  0  0  0  0  0  0  0  0  0  0  0
   -0.5646    2.5525   -0.0000 C   0  0  0  0  0  0  0  0  0  0  0  0
   -2.4819    0.8234   -0.0000 C   0  0  0  0  0  0  0  0  0  0  0  0
   -1.5762    3.6699   -0.0000 C   0  0  0  0  0  0  0  0  0  0  0  0
   -3.4935    1.9408   -0.0000 C   0  0  0  0  0  0  0  0  0  0  0  0
   -3.0465    3.3758   -0.0000 C   0  0  0  0  0  0  0  0  0  0  0  0
   -4.0581    4.4933   -0.0000 C   0  0  0  0  0  0  0  0  0  0  0  0
   -5.5519    4.3521   -0.0000 N   0  0  0  0  0  0  0  0  0  0  0  0
   -3.7640    5.9636   -0.0000 C   0  0  0  0  0  0  0  0  0  0  0  0
   -6.1753    5.7283   -0.0000 N   0  0  0  0  0  0  0  0  0  0  0  0
   -6.3047    3.0700   -0.0000 C   0  0  0  0  0  0  0  0  0  0  0  0
   -5.0696    6.7164   -0.0000 N   0  0  0  0  0  0  0  0  0  0  0  0
   -2.4113    6.5870   -0.0000 C   0  0  0  0  0  0  0  0  0  0  0  0
   -7.8103    3.0818   -0.0000 C   0  0  0  0  0  0  0  0  0  0  0  0
   -1.2586    5.6578   -0.0000 O   0  0  0  0  0  0  0  0  0  0  0  0
   -2.1878    8.0691   -0.0000 O   0  0  0  0  0  0  0  0  0  0  0  0
   -8.5631    1.7997   -0.0000 C   0  0  0  0  0  0  0  0  0  0  0  0
   -8.5631    4.3874   -0.0000 C   0  0  0  0  0  0  0  0  0  0  0  0
   -0.7999    8.6219   -0.0000 C   0  0  0  0  0  0  0  0  0  0  0  0
  -10.0687    1.8114   -0.0000 C   0  0  0  0  0  0  0  0  0  0  0  0
  -10.0687    4.3992   -0.0000 C   0  0  0  0  0  0  0  0  0  0  0  0
   -0.5764   10.1040   -0.0000 C   0  0  0  0  0  0  0  0  0  0  0  0
  -10.8333    3.1171   -0.0000 C   0  0  0  0  0  0  0  0  0  0  0  0
  1  2  1  0  0  0  0
  2  3  2  0  0  0  0
  2  4  1  0  0  0  0
  3  5  1  0  0  0  0
  4  6  2  0  0  0  0
  5  7  2  0  0  0  0
  7  8  1  0  0  0  0
  8  9  1  0  0  0  0
  8 10  2  0  0  0  0
  9 11  1  0  0  0  0
  9 12  1  0  0  0  0
 10 13  1  0  0  0  0
 10 14  1  0  0  0  0
 12 15  1  0  0  0  0
 14 16  2  0  0  0  0
 14 17  1  0  0  0  0
 15 18  2  0  0  0  0
 15 19  1  0  0  0  0
 17 20  1  0  0  0  0
 18 21  1  0  0  0  0
 19 22  2  0  0  0  0
 20 23  1  0  0  0  0
 21 24  2  0  0  0  0
  6  7  1  0  0  0  0
 11 13  2  0  0  0  0
 22 24  1  0  0  0  0
M  END
>  <MolRegNo>
1787339

>  <m>
=

>  <Value>
360

>  <Unit>
nM

>  <Type>
Ki

>  <pValue>
6.44

>  <Ligand Efficiency>
0.37

>  <Binding Efficiency>
18.85

>  <Surface Efficiency>
11.3

>  <Assay Index>
897972

>  <Assay Category>


>  <Assay Organism>
Homo sapiens

>  <Target ID>
65

>  <Target Name>
Cytochrome P450 19A1

>  <Target Organism>
Homo sapiens

>  <Target Description>
Target is a single protein chain

>  <Sequence Accession>
P11511

>  <Reference>
Bioorg Med Chem Lett 24 (18), 4586-4589 (2014)

>  <Pubmed ID>
25155384

>  <DOI>
10.1016/j.bmcl.2014.07.083

$$$$
1787338
Actelion Java MolfileCreator 1.0

 25 27  0  0  0  0  0  0  0  0999 V2000
    0.0000   -0.0000   -0.0000 Br  0  0  0  0  0  0  0  0  0  0  0  0
    0.7344    1.3149   -0.0000 C   0  0  0  0  0  0  0  0  0  0  0  0
    2.2270    1.3267   -0.0000 C   0  0  0  0  0  0  0  0  0  0  0  0
   -0.0237    2.6298   -0.0000 C   0  0  0  0  0  0  0  0  0  0  0  0
    2.9614    2.6416   -0.0000 C   0  0  0  0  0  0  0  0  0  0  0  0
    0.7107    3.9446   -0.0000 C   0  0  0  0  0  0  0  0  0  0  0  0
    2.2033    3.9565   -0.0000 C   0  0  0  0  0  0  0  0  0  0  0  0
    4.4540    2.6534   -0.0000 C   0  0  0  0  0  0  0  0  0  0  0  0
    5.1884    3.9683   -0.0000 N   0  0  0  0  0  0  0  0  0  0  0  0
    4.5606    5.3543   -0.0000 N   0  0  0  0  0  0  0  0  0  0  0  0
    6.6691    4.1342   -0.0000 C   0  0  0  0  0  0  0  0  0  0  0  0
    5.6623    6.3730   -0.0000 N   0  0  0  0  0  0  0  0  0  0  0  0
    7.6642    3.0325   -0.0000 C   0  0  0  0  0  0  0  0  0  0  0  0
    6.9653    5.6149   -0.0000 C   0  0  0  0  0  0  0  0  0  0  0  0
    9.1212    3.3523   -0.0000 C   0  0  0  0  0  0  0  0  0  0  0  0
    7.1904    1.6110   -0.0000 C   0  0  0  0  0  0  0  0  0  0  0  0
    8.3275    6.2427   -0.0000 C   0  0  0  0  0  0  0  0  0  0  0  0
   10.1162    2.2507   -0.0000 C   0  0  0  0  0  0  0  0  0  0  0  0
    8.1854    0.5094   -0.0000 C   0  0  0  0  0  0  0  0  0  0  0  0
    9.4884    5.3069   -0.0000 O   0  0  0  0  0  0  0  0  0  0  0  0
    8.5526    7.7353   -0.0000 O   0  0  0  0  0  0  0  0  0  0  0  0
    9.6424    0.8292   -0.0000 C   0  0  0  0  0  0  0  0  0  0  0  0
    9.9504    8.2920   -0.0000 C   0  0  0  0  0  0  0  0  0  0  0  0
   10.6375   -0.2725   -0.0000 Cl  0  0  0  0  0  0  0  0  0  0  0  0
   10.1755    9.7846   -0.0000 C   0  0  0  0  0  0  0  0  0  0  0  0
  1  2  1  0  0  0  0
  2  3  2  0  0  0  0
  2  4  1  0  0  0  0
  3  5  1  0  0  0  0
  4  6  2  0  0  0  0
  5  7  2  0  0  0  0
  5  8  1  0  0  0  0
  8  9  1  0  0  0  0
  9 10  1  0  0  0  0
  9 11  1  0  0  0  0
 10 12  2  0  0  0  0
 11 13  1  0  0  0  0
 11 14  2  0  0  0  0
 13 15  2  0  0  0  0
 13 16  1  0  0  0  0
 14 17  1  0  0  0  0
 15 18  1  0  0  0  0
 16 19  2  0  0  0  0
 17 20  2  0  0  0  0
 17 21  1  0  0  0  0
 18 22  2  0  0  0  0
 21 23  1  0  0  0  0
 22 24  1  0  0  0  0
 23 25  1  0  0  0  0
  6  7  1  0  0  0  0
 12 14  1  0  0  0  0
 19 22  1  0  0  0  0
M  END
>  <MolRegNo>
1787338

>  <m>
=

>  <Value>
30

>  <Unit>
nM

>  <Type>
Ki

>  <pValue>
7.52

>  <Ligand Efficiency>
0.41

>  <Binding Efficiency>
17.88

>  <Surface Efficiency>
13.2

>  <Assay Index>
897972

>  <Assay Category>


>  <Assay Organism>
Homo sapiens

>  <Target ID>
65

>  <Target Name>
Cytochrome P450 19A1

>  <Target Organism>
Homo sapiens

>  <Target Description>
Target is a single protein chain

>  <Sequence Accession>
P11511

>  <Reference>
Bioorg Med Chem Lett 24 (18), 4586-4589 (2014)

>  <Pubmed ID>
25155384

>  <DOI>
10.1016/j.bmcl.2014.07.083

$$$$
1924327
Actelion Java MolfileCreator 1.0

 25 28  0  0  0  0  0  0  0  0999 V2000
    0.0000   -0.0000   -0.0000 F   0  0  0  0  0  0  0  0  0  0  0  0
   -1.3021    0.7576   -0.0000 C   0  0  0  0  0  0  0  0  0  0  0  0
   -2.6159    0.0237   -0.0000 C   0  0  0  0  0  0  0  0  0  0  0  0
   -1.3139    2.2727   -0.0000 C   0  0  0  0  0  0  0  0  0  0  0  0
   -3.9180    0.7812   -0.0000 N   0  0  0  0  0  0  0  0  0  0  0  0
   -2.6159    3.0302   -0.0000 N   0  0  0  0  0  0  0  0  0  0  0  0
   -3.9298    2.2964   -0.0000 C   0  0  0  0  0  0  0  0  0  0  0  0
   -5.2319    3.0539   -0.0000 N   0  0  0  0  0  0  0  0  0  0  0  0
   -5.2437    4.5572   -0.0000 C   0  0  0  0  0  0  0  0  0  0  0  0
   -6.5339    2.3200   -0.0000 C   0  0  0  0  0  0  0  0  0  0  0  0
   -6.5458    5.3147   -0.0000 C   0  0  0  0  0  0  0  0  0  0  0  0
   -7.8360    3.0894   -0.0000 C   0  0  0  0  0  0  0  0  0  0  0  0
   -7.8597    4.5809   -0.0000 N   0  0  0  0  0  0  0  0  0  0  0  0
   -9.1617    5.3384   -0.0000 C   0  0  0  0  0  0  0  0  0  0  0  0
  -10.4638    4.6045   -0.0000 C   0  0  0  0  0  0  0  0  0  0  0  0
  -10.6413    3.1249   -0.0000 N   0  0  0  0  0  0  0  0  0  0  0  0
  -11.8369    5.2201   -0.0000 C   0  0  0  0  0  0  0  0  0  0  0  0
  -12.1091    2.8290   -0.0000 C   0  0  0  0  0  0  0  0  0  0  0  0
  -12.8548    4.1311   -0.0000 N   0  0  0  0  0  0  0  0  0  0  0  0
  -12.7246    1.4796   -0.0000 C   0  0  0  0  0  0  0  0  0  0  0  0
  -14.2279    1.3376   -0.0000 C   0  0  0  0  0  0  0  0  0  0  0  0
  -11.8605    0.2841   -0.0000 C   0  0  0  0  0  0  0  0  0  0  0  0
  -14.8553   -0.0118   -0.0000 C   0  0  0  0  0  0  0  0  0  0  0  0
  -12.4760   -1.0653   -0.0000 C   0  0  0  0  0  0  0  0  0  0  0  0
  -13.9912   -1.2074   -0.0000 C   0  0  0  0  0  0  0  0  0  0  0  0
  1  2  1  0  0  0  0
  2  3  2  0  0  0  0
  2  4  1  0  0  0  0
  3  5  1  0  0  0  0
  4  6  2  0  0  0  0
  5  7  2  0  0  0  0
  7  8  1  0  0  0  0
  8  9  1  0  0  0  0
  8 10  1  0  0  0  0
  9 11  1  0  0  0  0
 10 12  1  0  0  0  0
 11 13  1  0  0  0  0
 13 14  1  0  0  0  0
 14 15  1  0  0  0  0
 15 16  1  0  0  0  0
 15 17  2  0  0  0  0
 16 18  1  0  0  0  0
 17 19  1  0  0  0  0
 18 20  1  0  0  0  0
 20 21  2  0  0  0  0
 20 22  1  0  0  0  0
 21 23  1  0  0  0  0
 22 24  2  0  0  0  0
 23 25  2  0  0  0  0
  6  7  1  0  0  0  0
 12 13  1  0  0  0  0
 18 19  2  0  0  0  0
 24 25  1  0  0  0  0
M  END
>  <MolRegNo>
1924327

>  <m>
=

>  <Value>
550

>  <Unit>
nM

>  <Type>
Ki

>  <pValue>
6.26

>  <Ligand Efficiency>
0

>  <Binding Efficiency>
0

>  <Surface Efficiency>
0

>  <Assay Index>
931670

>  <Assay Category>


>  <Assay Organism>
Homo sapiens

>  <Target ID>
11365

>  <Target Name>
Cytochrome P450 2D6

>  <Target Organism>
Homo sapiens

>  <Target Description>
Target is a single protein chain

>  <Sequence Accession>
P10635

>  <Reference>
Drug Metab Dispos 39 (6), 974-983 (2011)

>  <Pubmed ID>
21422192

>  <DOI>
10.1124/dmd.110.037630

$$$$
442547
Actelion Java MolfileCreator 1.0

 26 30  0  0  0  0  0  0  0  0999 V2000
    0.0000   -0.0000   -0.0000 O   0  0  0  0  0  0  0  0  0  0  0  0
    0.0000   -1.4855   -0.0000 C   0  0  0  0  0  0  0  0  0  0  0  0
   -1.2953   -2.2342   -0.0000 C   0  0  0  0  0  0  0  0  0  0  0  0
    1.2953   -2.2223   -0.0000 C   0  0  0  0  0  0  0  0  0  0  0  0
   -1.3072   -3.7197   -0.0000 C   0  0  0  0  0  0  0  0  0  0  0  0
   -2.6026   -1.4736   -0.0000 C   0  0  0  0  0  0  0  0  0  0  0  0
    2.5788   -1.4617   -0.0000 C   0  0  0  0  0  0  0  0  0  0  0  0
   -2.6026   -4.4565   -0.0000 C   0  0  0  0  0  0  0  0  0  0  0  0
   -0.0357   -4.4565   -0.0000 C   0  0  0  0  0  0  0  0  0  0  0  0
   -3.9098   -2.1985   -0.0000 C   0  0  0  0  0  0  0  0  0  0  0  0
    3.8623   -2.2104   -0.0000 C   0  0  0  0  0  0  0  0  0  0  0  0
    2.5669    0.0475   -0.0000 C   0  0  0  0  0  0  0  0  0  0  0  0
   -3.9098   -3.7078   -0.0000 C   0  0  0  0  0  0  0  0  0  0  0  0
    1.2597   -3.6959   -0.0000 C   0  0  0  0  0  0  0  0  0  0  0  0
   -5.3596   -1.7232   -0.0000 O   0  0  0  0  0  0  0  0  0  0  0  0
    5.1576   -1.4498   -0.0000 C   0  0  0  0  0  0  0  0  0  0  0  0
    3.8623   -3.6959   -0.0000 C   0  0  0  0  0  0  0  0  0  0  0  0
    3.8504    0.8081   -0.0000 C   0  0  0  0  0  0  0  0  0  0  0  0
   -5.3596   -4.1713   -0.0000 O   0  0  0  0  0  0  0  0  0  0  0  0
    2.5432   -4.4327   -0.0000 N   0  0  0  0  0  0  0  0  0  0  0  0
   -6.2509   -2.9353   -0.0000 C   0  0  0  0  0  0  0  0  0  0  0  0
    5.1457    0.0713   -0.0000 C   0  0  0  0  0  0  0  0  0  0  0  0
    4.1475    2.2936   -0.0000 O   0  0  0  0  0  0  0  0  0  0  0  0
    2.5313   -5.9182   -0.0000 C   0  0  0  0  0  0  0  0  0  0  0  0
    6.2509    1.0933   -0.0000 O   0  0  0  0  0  0  0  0  0  0  0  0
    5.6330    2.4719   -0.0000 C   0  0  0  0  0  0  0  0  0  0  0  0
  1  2  2  0  0  0  0
  2  3  1  0  0  0  0
  2  4  1  0  0  0  0
  3  5  2  0  0  0  0
  3  6  1  0  0  0  0
  4  7  1  0  0  0  0
  5  8  1  0  0  0  0
  5  9  1  0  0  0  0
  6 10  2  0  0  0  0
  7 11  2  0  0  0  0
  7 12  1  0  0  0  0
  8 13  2  0  0  0  0
  9 14  1  0  0  0  0
 10 15  1  0  0  0  0
 11 16  1  0  0  0  0
 11 17  1  0  0  0  0
 12 18  2  0  0  0  0
 13 19  1  0  0  0  0
 14 20  1  0  0  0  0
 15 21  1  0  0  0  0
 16 22  2  0  0  0  0
 18 23  1  0  0  0  0
 20 24  1  0  0  0  0
 22 25  1  0  0  0  0
 23 26  1  0  0  0  0
 10 13  1  0  0  0  0
 17 20  1  0  0  0  0
 18 22  1  0  0  0  0
 19 21  1  0  0  0  0
 25 26  1  0  0  0  0
M  END
>  <MolRegNo>
442547

>  <m>
=

>  <Value>
78

>  <Unit>
nM

>  <Type>
Ki

>  <pValue>
7.11

>  <Ligand Efficiency>
0

>  <Binding Efficiency>
0

>  <Surface Efficiency>
0

>  <Assay Index>
970467

>  <Assay Category>


>  <Assay Organism>
Homo sapiens

>  <Target ID>
11365

>  <Target Name>
Cytochrome P450 2D6

>  <Target Organism>
Homo sapiens

>  <Target Description>
Target is a single protein chain

>  <Sequence Accession>
P10635

>  <Reference>
J Med Chem 58 (21), 8360-8372 (2015)

>  <Pubmed ID>
26125082

>  <DOI>
10.1021/acs.jmedchem.5b00417

$$$$
442562
Actelion Java MolfileCreator 1.0

 27 30  0  0  0  0  0  0  0  0999 V2000
    0.0000   -0.0000   -0.0000 O   0  0  0  0  0  0  0  0  0  0  0  0
    0.0000   -1.4885   -0.0000 C   0  0  0  0  0  0  0  0  0  0  0  0
   -1.2979   -2.2386   -0.0000 C   0  0  0  0  0  0  0  0  0  0  0  0
    1.2979   -2.2267   -0.0000 C   0  0  0  0  0  0  0  0  0  0  0  0
   -1.3098   -3.7271   -0.0000 C   0  0  0  0  0  0  0  0  0  0  0  0
   -2.6078   -1.4766   -0.0000 C   0  0  0  0  0  0  0  0  0  0  0  0
    2.5840   -1.4646   -0.0000 C   0  0  0  0  0  0  0  0  0  0  0  0
   -2.6078   -4.4654   -0.0000 C   0  0  0  0  0  0  0  0  0  0  0  0
   -0.0357   -4.4654   -0.0000 C   0  0  0  0  0  0  0  0  0  0  0  0
   -3.9176   -2.2029   -0.0000 C   0  0  0  0  0  0  0  0  0  0  0  0
    3.8700   -2.2148   -0.0000 C   0  0  0  0  0  0  0  0  0  0  0  0
    2.5721    0.0476   -0.0000 C   0  0  0  0  0  0  0  0  0  0  0  0
   -3.9176   -3.7152   -0.0000 C   0  0  0  0  0  0  0  0  0  0  0  0
    1.2622   -3.7033   -0.0000 C   0  0  0  0  0  0  0  0  0  0  0  0
   -5.3704   -1.7266   -0.0000 O   0  0  0  0  0  0  0  0  0  0  0  0
    5.1679   -1.4527   -0.0000 C   0  0  0  0  0  0  0  0  0  0  0  0
    3.8700   -3.7033   -0.0000 C   0  0  0  0  0  0  0  0  0  0  0  0
    3.8581    0.8097   -0.0000 C   0  0  0  0  0  0  0  0  0  0  0  0
   -5.3704   -4.1796   -0.0000 O   0  0  0  0  0  0  0  0  0  0  0  0
    2.5482   -4.4416   -0.0000 N   0  0  0  0  0  0  0  0  0  0  0  0
   -6.2634   -2.9412   -0.0000 C   0  0  0  0  0  0  0  0  0  0  0  0
    6.4540   -2.1910   -0.0000 O   0  0  0  0  0  0  0  0  0  0  0  0
    5.1560    0.0714   -0.0000 C   0  0  0  0  0  0  0  0  0  0  0  0
    2.5363   -5.9300   -0.0000 C   0  0  0  0  0  0  0  0  0  0  0  0
    6.4421   -3.6795   -0.0000 C   0  0  0  0  0  0  0  0  0  0  0  0
    6.4421    0.8335   -0.0000 O   0  0  0  0  0  0  0  0  0  0  0  0
    7.7281    0.0953   -0.0000 C   0  0  0  0  0  0  0  0  0  0  0  0
  1  2  2  0  0  0  0
  2  3  1  0  0  0  0
  2  4  1  0  0  0  0
  3  5  2  0  0  0  0
  3  6  1  0  0  0  0
  4  7  1  0  0  0  0
  5  8  1  0  0  0  0
  5  9  1  0  0  0  0
  6 10  2  0  0  0  0
  7 11  2  0  0  0  0
  7 12  1  0  0  0  0
  8 13  2  0  0  0  0
  9 14  1  0  0  0  0
 10 15  1  0  0  0  0
 11 16  1  0  0  0  0
 11 17  1  0  0  0  0
 12 18  2  0  0  0  0
 13 19  1  0  0  0  0
 14 20  1  0  0  0  0
 15 21  1  0  0  0  0
 16 22  1  0  0  0  0
 16 23  2  0  0  0  0
 20 24  1  0  0  0  0
 22 25  1  0  0  0  0
 23 26  1  0  0  0  0
 26 27  1  0  0  0  0
 10 13  1  0  0  0  0
 17 20  1  0  0  0  0
 18 23  1  0  0  0  0
 19 21  1  0  0  0  0
M  END
>  <MolRegNo>
442562

>  <m>
=

>  <Value>
122

>  <Unit>
nM

>  <Type>
Ki

>  <pValue>
6.91

>  <Ligand Efficiency>
0

>  <Binding Efficiency>
0

>  <Surface Efficiency>
0

>  <Assay Index>
970467

>  <Assay Category>


>  <Assay Organism>
Homo sapiens

>  <Target ID>
11365

>  <Target Name>
Cytochrome P450 2D6

>  <Target Organism>
Homo sapiens

>  <Target Description>
Target is a single protein chain

>  <Sequence Accession>
P10635

>  <Reference>
J Med Chem 58 (21), 8360-8372 (2015)

>  <Pubmed ID>
26125082

>  <DOI>
10.1021/acs.jmedchem.5b00417

$$$$
2057806
Actelion Java MolfileCreator 1.0

 22 25  0  0  0  0  0  0  0  0999 V2000
    0.0000   -0.0000   -0.0000 Cl  0  0  0  0  0  0  0  0  0  0  0  0
    1.0541   -0.5994   -0.0000 C   0  0  0  0  0  0  0  0  0  0  0  0
    1.0335   -2.0876   -0.0000 C   0  0  0  0  0  0  0  0  0  0  0  0
    2.3149    0.1654   -0.0000 C   0  0  0  0  0  0  0  0  0  0  0  0
   -0.0827   -2.6870   -0.0000 O   0  0  0  0  0  0  0  0  0  0  0  0
    2.3149   -2.8317   -0.0000 C   0  0  0  0  0  0  0  0  0  0  0  0
    3.6171   -0.5374   -0.0000 C   0  0  0  0  0  0  0  0  0  0  0  0
    3.5964   -2.0256   -0.0000 C   0  0  0  0  0  0  0  0  0  0  0  0
    4.8986    0.2274   -0.0000 C   0  0  0  0  0  0  0  0  0  0  0  0
    3.5757    0.7441   -0.0000 C   0  0  0  0  0  0  0  0  0  0  0  0
    4.8986   -2.7697   -0.0000 C   0  0  0  0  0  0  0  0  0  0  0  0
    6.1800   -0.4754   -0.0000 C   0  0  0  0  0  0  0  0  0  0  0  0
    4.8572    1.7775   -0.0000 C   0  0  0  0  0  0  0  0  0  0  0  0
    6.1800   -1.9636   -0.0000 C   0  0  0  0  0  0  0  0  0  0  0  0
    7.4615    0.2894   -0.0000 C   0  0  0  0  0  0  0  0  0  0  0  0
    6.1387    2.5630   -0.0000 C   0  0  0  0  0  0  0  0  0  0  0  0
    7.4409    1.8189   -0.0000 C   0  0  0  0  0  0  0  0  0  0  0  0
   10.0658    0.2894   -0.0000 C   0  0  0  0  0  0  0  0  0  0  0  0
    8.7223    2.6250   -0.0000 C   0  0  0  0  0  0  0  0  0  0  0  0
    7.4202    3.1004   -0.0000 C   0  0  0  0  0  0  0  0  0  0  0  0
   10.0451    1.8602   -0.0000 C   0  0  0  0  0  0  0  0  0  0  0  0
    8.7017    3.9064   -0.0000 O   0  0  0  0  0  0  0  0  0  0  0  0
  2  1  1  1  0  0  0
  2  3  1  0  0  0  0
  2  4  1  0  0  0  0
  3  5  2  0  0  0  0
  3  6  1  0  0  0  0
  4  7  1  0  0  0  0
  6  8  2  0  0  0  0
  7  9  1  0  0  0  0
  7 10  1  6  0  0  0
  8 11  1  0  0  0  0
  9 12  1  0  0  0  0
  9 13  1  6  0  0  0
 11 14  1  0  0  0  0
 12 15  1  0  0  0  0
 13 16  1  0  0  0  0
 15 17  1  0  0  0  0
 15 18  1  6  0  0  0
 17 19  1  0  0  0  0
 17 20  1  6  0  0  0
 18 21  1  0  0  0  0
 19 22  2  0  0  0  0
  7  8  1  0  0  0  0
 12 14  1  1  0  0  0
 16 17  1  0  0  0  0
 19 21  1  0  0  0  0
M  END
>  <MolRegNo>
2057806

>  <m>
=

>  <Value>
45

>  <Unit>
nM

>  <Type>
Ki

>  <pValue>
7.35

>  <Ligand Efficiency>
0.46

>  <Binding Efficiency>
22.9

>  <Surface Efficiency>
21.52

>  <Assay Index>
985352

>  <Assay Category>


>  <Assay Organism>
Homo sapiens

>  <Target ID>
65

>  <Target Name>
Cytochrome P450 19A1

>  <Target Organism>
Homo sapiens

>  <Target Description>
Target is a single protein chain

>  <Sequence Accession>
P11511

>  <Reference>


>  <Pubmed ID>
26469743

>  <DOI>
10.1016/j.ejmech.2015.09.038

$$$$
2057807
Actelion Java MolfileCreator 1.0

 22 25  0  0  0  0  0  0  0  0999 V2000
    0.0000   -0.0000   -0.0000 Br  0  0  0  0  0  0  0  0  0  0  0  0
    1.0541   -0.5994   -0.0000 C   0  0  0  0  0  0  0  0  0  0  0  0
    1.0335   -2.0876   -0.0000 C   0  0  0  0  0  0  0  0  0  0  0  0
    2.3149    0.1654   -0.0000 C   0  0  0  0  0  0  0  0  0  0  0  0
   -0.0827   -2.6870   -0.0000 O   0  0  0  0  0  0  0  0  0  0  0  0
    2.3149   -2.8317   -0.0000 C   0  0  0  0  0  0  0  0  0  0  0  0
    3.6171   -0.5374   -0.0000 C   0  0  0  0  0  0  0  0  0  0  0  0
    3.5964   -2.0256   -0.0000 C   0  0  0  0  0  0  0  0  0  0  0  0
    4.8986    0.2274   -0.0000 C   0  0  0  0  0  0  0  0  0  0  0  0
    3.5757    0.7441   -0.0000 C   0  0  0  0  0  0  0  0  0  0  0  0
    4.8986   -2.7697   -0.0000 C   0  0  0  0  0  0  0  0  0  0  0  0
    6.1800   -0.4754   -0.0000 C   0  0  0  0  0  0  0  0  0  0  0  0
    4.8572    1.7775   -0.0000 C   0  0  0  0  0  0  0  0  0  0  0  0
    6.1800   -1.9636   -0.0000 C   0  0  0  0  0  0  0  0  0  0  0  0
    7.4615    0.2894   -0.0000 C   0  0  0  0  0  0  0  0  0  0  0  0
    6.1387    2.5630   -0.0000 C   0  0  0  0  0  0  0  0  0  0  0  0
    7.4409    1.8189   -0.0000 C   0  0  0  0  0  0  0  0  0  0  0  0
   10.0658    0.2894   -0.0000 C   0  0  0  0  0  0  0  0  0  0  0  0
    8.7223    2.6250   -0.0000 C   0  0  0  0  0  0  0  0  0  0  0  0
    7.4202    3.1004   -0.0000 C   0  0  0  0  0  0  0  0  0  0  0  0
   10.0451    1.8602   -0.0000 C   0  0  0  0  0  0  0  0  0  0  0  0
    8.7017    3.9064   -0.0000 O   0  0  0  0  0  0  0  0  0  0  0  0
  2  1  1  1  0  0  0
  2  3  1  0  0  0  0
  2  4  1  0  0  0  0
  3  5  2  0  0  0  0
  3  6  1  0  0  0  0
  4  7  1  0  0  0  0
  6  8  2  0  0  0  0
  7  9  1  0  0  0  0
  7 10  1  6  0  0  0
  8 11  1  0  0  0  0
  9 12  1  0  0  0  0
  9 13  1  6  0  0  0
 11 14  1  0  0  0  0
 12 15  1  0  0  0  0
 13 16  1  0  0  0  0
 15 17  1  0  0  0  0
 15 18  1  6  0  0  0
 17 19  1  0  0  0  0
 17 20  1  6  0  0  0
 18 21  1  0  0  0  0
 19 22  2  0  0  0  0
  7  8  1  0  0  0  0
 12 14  1  1  0  0  0
 16 17  1  0  0  0  0
 19 21  1  0  0  0  0
M  END
>  <MolRegNo>
2057807

>  <m>
=

>  <Value>
45

>  <Unit>
nM

>  <Type>
Ki

>  <pValue>
7.35

>  <Ligand Efficiency>
0.46

>  <Binding Efficiency>
20.11

>  <Surface Efficiency>
21.52

>  <Assay Index>
985352

>  <Assay Category>


>  <Assay Organism>
Homo sapiens

>  <Target ID>
65

>  <Target Name>
Cytochrome P450 19A1

>  <Target Organism>
Homo sapiens

>  <Target Description>
Target is a single protein chain

>  <Sequence Accession>
P11511

>  <Reference>


>  <Pubmed ID>
26469743

>  <DOI>
10.1016/j.ejmech.2015.09.038

$$$$
2057808
Actelion Java MolfileCreator 1.0

 22 25  0  0  0  0  0  0  0  0999 V2000
    0.0000   -0.0000   -0.0000 O   0  0  0  0  0  0  0  0  0  0  0  0
    1.0701    0.6379   -0.0000 C   0  0  0  0  0  0  0  0  0  0  0  0
    2.3459   -0.1029   -0.0000 C   0  0  0  0  0  0  0  0  0  0  0  0
    1.0495    2.1607   -0.0000 C   0  0  0  0  0  0  0  0  0  0  0  0
    3.6218    0.6997   -0.0000 C   0  0  0  0  0  0  0  0  0  0  0  0
   -0.0412    2.7986   -0.0000 O   0  0  0  0  0  0  0  0  0  0  0  0
    2.3048    2.9221   -0.0000 C   0  0  0  0  0  0  0  0  0  0  0  0
    3.6012    2.2225   -0.0000 C   0  0  0  0  0  0  0  0  0  0  0  0
    4.9182   -0.0412   -0.0000 C   0  0  0  0  0  0  0  0  0  0  0  0
    4.8770    2.9838   -0.0000 C   0  0  0  0  0  0  0  0  0  0  0  0
    3.5600    3.4983   -0.0000 C   0  0  0  0  0  0  0  0  0  0  0  0
    6.1941    0.7614   -0.0000 C   0  0  0  0  0  0  0  0  0  0  0  0
    6.1529    2.2842   -0.0000 C   0  0  0  0  0  0  0  0  0  0  0  0
    4.8359    4.5272   -0.0000 C   0  0  0  0  0  0  0  0  0  0  0  0
    7.4288    3.0456   -0.0000 C   0  0  0  0  0  0  0  0  0  0  0  0
    6.1117    5.3092   -0.0000 C   0  0  0  0  0  0  0  0  0  0  0  0
    7.4082    4.5684   -0.0000 C   0  0  0  0  0  0  0  0  0  0  0  0
   10.0216    3.0456   -0.0000 C   0  0  0  0  0  0  0  0  0  0  0  0
    8.6840    5.3709   -0.0000 C   0  0  0  0  0  0  0  0  0  0  0  0
    7.3876    5.8442   -0.0000 C   0  0  0  0  0  0  0  0  0  0  0  0
   10.0010    4.6095   -0.0000 C   0  0  0  0  0  0  0  0  0  0  0  0
    8.6634    6.6468   -0.0000 O   0  0  0  0  0  0  0  0  0  0  0  0
  1  2  2  0  0  0  0
  2  3  1  0  0  0  0
  2  4  1  0  0  0  0
  3  5  2  0  0  0  0
  4  6  1  1  0  0  0
  4  7  1  0  0  0  0
  5  8  1  0  0  0  0
  5  9  1  0  0  0  0
  8 10  1  0  0  0  0
  8 11  1  6  0  0  0
  9 12  1  0  0  0  0
 10 13  1  0  0  0  0
 10 14  1  6  0  0  0
 13 15  1  0  0  0  0
 14 16  1  0  0  0  0
 15 17  1  0  0  0  0
 15 18  1  6  0  0  0
 17 19  1  0  0  0  0
 17 20  1  6  0  0  0
 18 21  1  0  0  0  0
 19 22  2  0  0  0  0
  7  8  1  0  0  0  0
 13 12  1  1  0  0  0
 16 17  1  0  0  0  0
 19 21  1  0  0  0  0
M  END
>  <MolRegNo>
2057808

>  <m>
=

>  <Value>
670

>  <Unit>
nM

>  <Type>
Ki

>  <pValue>
6.17

>  <Ligand Efficiency>
0.38

>  <Binding Efficiency>
20.42

>  <Surface Efficiency>
11.36

>  <Assay Index>
985352

>  <Assay Category>


>  <Assay Organism>
Homo sapiens

>  <Target ID>
65

>  <Target Name>
Cytochrome P450 19A1

>  <Target Organism>
Homo sapiens

>  <Target Description>
Target is a single protein chain

>  <Sequence Accession>
P11511

>  <Reference>


>  <Pubmed ID>
26469743

>  <DOI>
10.1016/j.ejmech.2015.09.038

$$$$
2057809
Actelion Java MolfileCreator 1.0

 23 26  0  0  0  0  0  0  0  0999 V2000
    0.0000   -0.0000   -0.0000 O   0  0  0  0  0  0  0  0  0  0  0  0
    1.0680    0.6367   -0.0000 C   0  0  0  0  0  0  0  0  0  0  0  0
    2.3414   -0.1027   -0.0000 C   0  0  0  0  0  0  0  0  0  0  0  0
    1.0475    2.1566   -0.0000 C   0  0  0  0  0  0  0  0  0  0  0  0
    3.6148    0.6983   -0.0000 C   0  0  0  0  0  0  0  0  0  0  0  0
   -0.3286    2.9576   -0.0000 O   0  0  0  0  0  0  0  0  0  0  0  0
    2.3003    2.9165   -0.0000 C   0  0  0  0  0  0  0  0  0  0  0  0
    3.5943    2.2182   -0.0000 C   0  0  0  0  0  0  0  0  0  0  0  0
    4.9088   -0.0411   -0.0000 C   0  0  0  0  0  0  0  0  0  0  0  0
   -1.4172    2.3620   -0.0000 C   0  0  0  0  0  0  0  0  0  0  0  0
    4.8677    2.9781   -0.0000 C   0  0  0  0  0  0  0  0  0  0  0  0
    3.5532    3.4916   -0.0000 C   0  0  0  0  0  0  0  0  0  0  0  0
    6.1822    0.7599   -0.0000 C   0  0  0  0  0  0  0  0  0  0  0  0
    6.1411    2.2798   -0.0000 C   0  0  0  0  0  0  0  0  0  0  0  0
    4.8266    4.5185   -0.0000 C   0  0  0  0  0  0  0  0  0  0  0  0
    7.4145    3.0397   -0.0000 C   0  0  0  0  0  0  0  0  0  0  0  0
    6.1000    5.2990   -0.0000 C   0  0  0  0  0  0  0  0  0  0  0  0
    7.3939    4.5596   -0.0000 C   0  0  0  0  0  0  0  0  0  0  0  0
   10.0024    3.0397   -0.0000 C   0  0  0  0  0  0  0  0  0  0  0  0
    8.6673    5.3606   -0.0000 C   0  0  0  0  0  0  0  0  0  0  0  0
    7.3734    5.8330   -0.0000 C   0  0  0  0  0  0  0  0  0  0  0  0
    9.9818    4.6007   -0.0000 C   0  0  0  0  0  0  0  0  0  0  0  0
    8.6468    6.6340   -0.0000 O   0  0  0  0  0  0  0  0  0  0  0  0
  1  2  2  0  0  0  0
  2  3  1  0  0  0  0
  2  4  1  0  0  0  0
  3  5  2  0  0  0  0
  4  6  1  1  0  0  0
  4  7  1  0  0  0  0
  5  8  1  0  0  0  0
  5  9  1  0  0  0  0
  6 10  1  0  0  0  0
  8 11  1  0  0  0  0
  8 12  1  6  0  0  0
  9 13  1  0  0  0  0
 11 14  1  0  0  0  0
 11 15  1  6  0  0  0
 14 16  1  0  0  0  0
 15 17  1  0  0  0  0
 16 18  1  0  0  0  0
 16 19  1  6  0  0  0
 18 20  1  0  0  0  0
 18 21  1  6  0  0  0
 19 22  1  0  0  0  0
 20 23  2  0  0  0  0
  7  8  1  0  0  0  0
 14 13  1  1  0  0  0
 17 18  1  0  0  0  0
 20 22  1  0  0  0  0
M  END
>  <MolRegNo>
2057809

>  <m>
=

>  <Value>
670

>  <Unit>
nM

>  <Type>
Ki

>  <pValue>
6.17

>  <Ligand Efficiency>
0.37

>  <Binding Efficiency>
19.51

>  <Surface Efficiency>
14.24

>  <Assay Index>
985352

>  <Assay Category>


>  <Assay Organism>
Homo sapiens

>  <Target ID>
65

>  <Target Name>
Cytochrome P450 19A1

>  <Target Organism>
Homo sapiens

>  <Target Description>
Target is a single protein chain

>  <Sequence Accession>
P11511

>  <Reference>


>  <Pubmed ID>
26469743

>  <DOI>
10.1016/j.ejmech.2015.09.038

$$$$
2057810
Actelion Java MolfileCreator 1.0

 24 27  0  0  0  0  0  0  0  0999 V2000
    0.0000   -0.0000   -0.0000 O   0  0  0  0  0  0  0  0  0  0  0  0
    1.0656    0.6353   -0.0000 C   0  0  0  0  0  0  0  0  0  0  0  0
    2.3361   -0.1025   -0.0000 C   0  0  0  0  0  0  0  0  0  0  0  0
    1.0451    2.1517   -0.0000 C   0  0  0  0  0  0  0  0  0  0  0  0
    3.6066    0.6967   -0.0000 C   0  0  0  0  0  0  0  0  0  0  0  0
   -0.3279    2.9509   -0.0000 O   0  0  0  0  0  0  0  0  0  0  0  0
    2.2951    2.9099   -0.0000 C   0  0  0  0  0  0  0  0  0  0  0  0
    3.5861    2.2131   -0.0000 C   0  0  0  0  0  0  0  0  0  0  0  0
    4.8976   -0.0410   -0.0000 C   0  0  0  0  0  0  0  0  0  0  0  0
   -1.7008    2.1927   -0.0000 C   0  0  0  0  0  0  0  0  0  0  0  0
    4.8566    2.9714   -0.0000 C   0  0  0  0  0  0  0  0  0  0  0  0
    3.5451    3.4837   -0.0000 C   0  0  0  0  0  0  0  0  0  0  0  0
    6.1681    0.7582   -0.0000 C   0  0  0  0  0  0  0  0  0  0  0  0
   -2.7869    2.8279   -0.0000 C   0  0  0  0  0  0  0  0  0  0  0  0
    6.1271    2.2746   -0.0000 C   0  0  0  0  0  0  0  0  0  0  0  0
    4.8156    4.5083   -0.0000 C   0  0  0  0  0  0  0  0  0  0  0  0
    7.3976    3.0328   -0.0000 C   0  0  0  0  0  0  0  0  0  0  0  0
    6.0861    5.2870   -0.0000 C   0  0  0  0  0  0  0  0  0  0  0  0
    7.3771    4.5492   -0.0000 C   0  0  0  0  0  0  0  0  0  0  0  0
    9.9796    3.0328   -0.0000 C   0  0  0  0  0  0  0  0  0  0  0  0
    8.6477    5.3484   -0.0000 C   0  0  0  0  0  0  0  0  0  0  0  0
    7.3567    5.8197   -0.0000 C   0  0  0  0  0  0  0  0  0  0  0  0
    9.9591    4.5902   -0.0000 C   0  0  0  0  0  0  0  0  0  0  0  0
    8.6272    6.6189   -0.0000 O   0  0  0  0  0  0  0  0  0  0  0  0
  1  2  2  0  0  0  0
  2  3  1  0  0  0  0
  2  4  1  0  0  0  0
  3  5  2  0  0  0  0
  4  6  1  1  0  0  0
  4  7  1  0  0  0  0
  5  8  1  0  0  0  0
  5  9  1  0  0  0  0
  6 10  1  0  0  0  0
  8 11  1  0  0  0  0
  8 12  1  6  0  0  0
  9 13  1  0  0  0  0
 10 14  1  0  0  0  0
 11 15  1  0  0  0  0
 11 16  1  6  0  0  0
 15 17  1  0  0  0  0
 16 18  1  0  0  0  0
 17 19  1  0  0  0  0
 17 20  1  6  0  0  0
 19 21  1  0  0  0  0
 19 22  1  6  0  0  0
 20 23  1  0  0  0  0
 21 24  2  0  0  0  0
  7  8  1  0  0  0  0
 15 13  1  1  0  0  0
 18 19  1  0  0  0  0
 21 23  1  0  0  0  0
M  END
>  <MolRegNo>
2057810

>  <m>
=

>  <Value>
670

>  <Unit>
nM

>  <Type>
Ki

>  <pValue>
6.17

>  <Ligand Efficiency>
0.35

>  <Binding Efficiency>
18.68

>  <Surface Efficiency>
14.24

>  <Assay Index>
985352

>  <Assay Category>


>  <Assay Organism>
Homo sapiens

>  <Target ID>
65

>  <Target Name>
Cytochrome P450 19A1

>  <Target Organism>
Homo sapiens

>  <Target Description>
Target is a single protein chain

>  <Sequence Accession>
P11511

>  <Reference>


>  <Pubmed ID>
26469743

>  <DOI>
10.1016/j.ejmech.2015.09.038

$$$$
2058227
Actelion Java MolfileCreator 1.0

 23 26  0  0  0  0  0  0  0  0999 V2000
    0.0000   -0.0000   -0.0000 Br  0  0  0  0  0  0  0  0  0  0  0  0
   -1.0918   -0.5974   -0.0000 C   0  0  0  0  0  0  0  0  0  0  0  0
   -2.4309    0.1854   -0.0000 C   0  0  0  0  0  0  0  0  0  0  0  0
   -1.1124   -2.1219   -0.0000 C   0  0  0  0  0  0  0  0  0  0  0  0
   -2.4515    1.4626   -0.0000 O   0  0  0  0  0  0  0  0  0  0  0  0
   -3.7493   -0.5768   -0.0000 C   0  0  0  0  0  0  0  0  0  0  0  0
   -3.7493   -2.0807   -0.0000 C   0  0  0  0  0  0  0  0  0  0  0  0
   -5.0678    0.2060   -0.0000 C   0  0  0  0  0  0  0  0  0  0  0  0
   -3.7699    0.7004   -0.0000 C   0  0  0  0  0  0  0  0  0  0  0  0
   -5.0678   -2.8017   -0.0000 C   0  0  0  0  0  0  0  0  0  0  0  0
   -6.3862   -0.5356   -0.0000 C   0  0  0  0  0  0  0  0  0  0  0  0
   -6.3862   -2.0601   -0.0000 C   0  0  0  0  0  0  0  0  0  0  0  0
   -5.0678   -4.2849   -0.0000 C   0  0  0  0  0  0  0  0  0  0  0  0
   -7.7046   -2.7811   -0.0000 C   0  0  0  0  0  0  0  0  0  0  0  0
   -6.3862   -5.0472   -0.0000 C   0  0  0  0  0  0  0  0  0  0  0  0
   -7.7252   -4.2643   -0.0000 C   0  0  0  0  0  0  0  0  0  0  0  0
   -9.0437   -2.0395   -0.0000 C   0  0  0  0  0  0  0  0  0  0  0  0
   -7.7459   -1.5038   -0.0000 C   0  0  0  0  0  0  0  0  0  0  0  0
   -6.3862   -6.2832   -0.0000 O   0  0  0  0  0  0  0  0  0  0  0  0
   -9.0437   -5.0266   -0.0000 C   0  0  0  0  0  0  0  0  0  0  0  0
  -10.3415   -2.7605   -0.0000 C   0  0  0  0  0  0  0  0  0  0  0  0
  -10.3621   -4.2437   -0.0000 C   0  0  0  0  0  0  0  0  0  0  0  0
  -11.4746   -4.8412   -0.0000 O   0  0  0  0  0  0  0  0  0  0  0  0
  2  1  1  1  0  0  0
  2  3  1  0  0  0  0
  2  4  1  0  0  0  0
  3  5  2  0  0  0  0
  3  6  1  0  0  0  0
  7  4  1  6  0  0  0
  6  8  1  0  0  0  0
  6  9  1  6  0  0  0
  7 10  1  0  0  0  0
  8 11  1  0  0  0  0
 10 12  1  0  0  0  0
 10 13  1  1  0  0  0
 12 14  1  0  0  0  0
 13 15  1  0  0  0  0
 14 16  1  0  0  0  0
 14 17  1  0  0  0  0
 14 18  1  6  0  0  0
 15 19  2  0  0  0  0
 16 20  2  0  0  0  0
 17 21  1  0  0  0  0
 20 22  1  0  0  0  0
 22 23  2  0  0  0  0
  6  7  1  0  0  0  0
 12 11  1  6  0  0  0
 15 16  1  0  0  0  0
 21 22  1  0  0  0  0
M  END
>  <MolRegNo>
2058227

>  <m>
=

>  <Value>
150

>  <Unit>
nM

>  <Type>
Ki

>  <pValue>
6.82

>  <Ligand Efficiency>
0.41

>  <Binding Efficiency>
17.99

>  <Surface Efficiency>
13.33

>  <Assay Index>
985352

>  <Assay Category>


>  <Assay Organism>
Homo sapiens

>  <Target ID>
65

>  <Target Name>
Cytochrome P450 19A1

>  <Target Organism>
Homo sapiens

>  <Target Description>
Target is a single protein chain

>  <Sequence Accession>
P11511

>  <Reference>


>  <Pubmed ID>
26469743

>  <DOI>
10.1016/j.ejmech.2015.09.038

$$$$
2058228
Actelion Java MolfileCreator 1.0

 23 26  0  0  0  0  0  0  0  0999 V2000
    0.0000   -0.0000   -0.0000 O   0  0  0  0  0  0  0  0  0  0  0  0
   -0.0411    1.2737   -0.0000 C   0  0  0  0  0  0  0  0  0  0  0  0
   -1.3764    2.0543   -0.0000 C   0  0  0  0  0  0  0  0  0  0  0  0
    1.2326    2.0749   -0.0000 C   0  0  0  0  0  0  0  0  0  0  0  0
   -2.6912    1.2942   -0.0000 C   0  0  0  0  0  0  0  0  0  0  0  0
   -1.3969    3.5745   -0.0000 C   0  0  0  0  0  0  0  0  0  0  0  0
    1.1915    3.5951   -0.0000 C   0  0  0  0  0  0  0  0  0  0  0  0
   -4.0060    2.0749   -0.0000 C   0  0  0  0  0  0  0  0  0  0  0  0
   -0.1233    4.3347   -0.0000 C   0  0  0  0  0  0  0  0  0  0  0  0
   -2.7323    4.3141   -0.0000 C   0  0  0  0  0  0  0  0  0  0  0  0
   -1.4380    4.8482   -0.0000 C   0  0  0  0  0  0  0  0  0  0  0  0
    2.4652    4.3552   -0.0000 C   0  0  0  0  0  0  0  0  0  0  0  0
   -5.1153    1.4791   -0.0000 O   0  0  0  0  0  0  0  0  0  0  0  0
   -4.0265    3.5951   -0.0000 C   0  0  0  0  0  0  0  0  0  0  0  0
   -0.1643    5.8754   -0.0000 C   0  0  0  0  0  0  0  0  0  0  0  0
    2.4447    5.8754   -0.0000 C   0  0  0  0  0  0  0  0  0  0  0  0
    5.0537    4.3552   -0.0000 C   0  0  0  0  0  0  0  0  0  0  0  0
    1.1093    6.6561   -0.0000 C   0  0  0  0  0  0  0  0  0  0  0  0
    3.7184    6.6766   -0.0000 C   0  0  0  0  0  0  0  0  0  0  0  0
    2.4241    7.1491   -0.0000 C   0  0  0  0  0  0  0  0  0  0  0  0
    5.0331    5.9165   -0.0000 C   0  0  0  0  0  0  0  0  0  0  0  0
    3.6978    7.9503   -0.0000 O   0  0  0  0  0  0  0  0  0  0  0  0
    6.0808    6.5533   -0.0000 O   0  0  0  0  0  0  0  0  0  0  0  0
  1  2  2  0  0  0  0
  2  3  1  0  0  0  0
  2  4  1  0  0  0  0
  3  5  2  0  0  0  0
  3  6  1  0  0  0  0
  7  4  1  1  0  0  0
  5  8  1  0  0  0  0
  6  9  1  0  0  0  0
  6 10  1  0  0  0  0
  6 11  1  6  0  0  0
  7 12  1  0  0  0  0
  8 13  2  0  0  0  0
  8 14  1  0  0  0  0
  9 15  1  6  0  0  0
 12 16  1  0  0  0  0
 12 17  1  6  0  0  0
 15 18  1  0  0  0  0
 16 19  1  0  0  0  0
 16 20  1  6  0  0  0
 17 21  1  0  0  0  0
 19 22  2  0  0  0  0
 21 23  1  1  0  0  0
  7  9  1  0  0  0  0
 10 14  1  0  0  0  0
 16 18  1  0  0  0  0
 19 21  1  0  0  0  0
M  END
>  <MolRegNo>
2058228

>  <m>
=

>  <Value>
1180

>  <Unit>
nM

>  <Type>
Ki

>  <pValue>
5.93

>  <Ligand Efficiency>
0.35

>  <Binding Efficiency>
18.74

>  <Surface Efficiency>
8.3

>  <Assay Index>
985352

>  <Assay Category>


>  <Assay Organism>
Homo sapiens

>  <Target ID>
65

>  <Target Name>
Cytochrome P450 19A1

>  <Target Organism>
Homo sapiens

>  <Target Description>
Target is a single protein chain

>  <Sequence Accession>
P11511

>  <Reference>


>  <Pubmed ID>
26469743

>  <DOI>
10.1016/j.ejmech.2015.09.038

$$$$
2058229
Actelion Java MolfileCreator 1.0

 23 26  0  0  0  0  0  0  0  0999 V2000
    0.0000   -0.0000   -0.0000 O   0  0  0  0  0  0  0  0  0  0  0  0
   -0.0407    1.2624   -0.0000 C   0  0  0  0  0  0  0  0  0  0  0  0
   -1.3642    2.0361   -0.0000 C   0  0  0  0  0  0  0  0  0  0  0  0
    1.2217    2.0565   -0.0000 C   0  0  0  0  0  0  0  0  0  0  0  0
   -2.6673    1.2828   -0.0000 C   0  0  0  0  0  0  0  0  0  0  0  0
   -1.3846    3.5428   -0.0000 C   0  0  0  0  0  0  0  0  0  0  0  0
    1.1809    3.5632   -0.0000 C   0  0  0  0  0  0  0  0  0  0  0  0
   -3.9704    2.0565   -0.0000 C   0  0  0  0  0  0  0  0  0  0  0  0
   -0.1222    4.2962   -0.0000 C   0  0  0  0  0  0  0  0  0  0  0  0
   -2.7080    4.2758   -0.0000 C   0  0  0  0  0  0  0  0  0  0  0  0
   -1.4253    4.8052   -0.0000 C   0  0  0  0  0  0  0  0  0  0  0  0
    2.4433    4.3166   -0.0000 C   0  0  0  0  0  0  0  0  0  0  0  0
   -5.3346    1.3235   -0.0000 O   0  0  0  0  0  0  0  0  0  0  0  0
   -3.9908    3.5632   -0.0000 C   0  0  0  0  0  0  0  0  0  0  0  0
   -0.1629    5.8233   -0.0000 C   0  0  0  0  0  0  0  0  0  0  0  0
    2.4230    5.8233   -0.0000 C   0  0  0  0  0  0  0  0  0  0  0  0
    5.0088    4.3166   -0.0000 C   0  0  0  0  0  0  0  0  0  0  0  0
   -6.4138    1.9750   -0.0000 C   0  0  0  0  0  0  0  0  0  0  0  0
    1.0995    6.5970   -0.0000 C   0  0  0  0  0  0  0  0  0  0  0  0
    3.6854    6.6174   -0.0000 C   0  0  0  0  0  0  0  0  0  0  0  0
    2.4026    7.0857   -0.0000 C   0  0  0  0  0  0  0  0  0  0  0  0
    4.9885    5.8640   -0.0000 C   0  0  0  0  0  0  0  0  0  0  0  0
    3.6650    7.8798   -0.0000 O   0  0  0  0  0  0  0  0  0  0  0  0
  1  2  2  0  0  0  0
  2  3  1  0  0  0  0
  2  4  1  0  0  0  0
  3  5  2  0  0  0  0
  3  6  1  0  0  0  0
  7  4  1  1  0  0  0
  5  8  1  0  0  0  0
  6  9  1  0  0  0  0
  6 10  1  0  0  0  0
  6 11  1  6  0  0  0
  7 12  1  0  0  0  0
  8 13  1  1  0  0  0
  8 14  1  0  0  0  0
  9 15  1  6  0  0  0
 12 16  1  0  0  0  0
 12 17  1  6  0  0  0
 13 18  1  0  0  0  0
 15 19  1  0  0  0  0
 16 20  1  0  0  0  0
 16 21  1  6  0  0  0
 17 22  1  0  0  0  0
 20 23  2  0  0  0  0
  7  9  1  0  0  0  0
 10 14  1  0  0  0  0
 16 19  1  0  0  0  0
 20 22  1  0  0  0  0
M  END
>  <MolRegNo>
2058229

>  <m>
=

>  <Value>
700

>  <Unit>
nM

>  <Type>
Ki

>  <pValue>
6.16

>  <Ligand Efficiency>
0.37

>  <Binding Efficiency>
19.45

>  <Surface Efficiency>
14.19

>  <Assay Index>
985352

>  <Assay Category>


>  <Assay Organism>
Homo sapiens

>  <Target ID>
65

>  <Target Name>
Cytochrome P450 19A1

>  <Target Organism>
Homo sapiens

>  <Target Description>
Target is a single protein chain

>  <Sequence Accession>
P11511

>  <Reference>


>  <Pubmed ID>
26469743

>  <DOI>
10.1016/j.ejmech.2015.09.038

$$$$
2057804
Actelion Java MolfileCreator 1.0

 22 25  0  0  0  0  0  0  0  0999 V2000
    0.0000   -0.0000   -0.0000 O   0  0  0  0  0  0  0  0  0  0  0  0
    1.0701    0.6379   -0.0000 C   0  0  0  0  0  0  0  0  0  0  0  0
    1.0495    2.1607   -0.0000 C   0  0  0  0  0  0  0  0  0  0  0  0
    2.3459   -0.1029   -0.0000 C   0  0  0  0  0  0  0  0  0  0  0  0
    2.3048    2.9221   -0.0000 C   0  0  0  0  0  0  0  0  0  0  0  0
   -0.0412    2.7986   -0.0000 C   0  0  0  0  0  0  0  0  0  0  0  0
    3.6218    0.6997   -0.0000 C   0  0  0  0  0  0  0  0  0  0  0  0
    3.6012    2.2225   -0.0000 C   0  0  0  0  0  0  0  0  0  0  0  0
    4.9182   -0.0412   -0.0000 C   0  0  0  0  0  0  0  0  0  0  0  0
    4.8770    2.9838   -0.0000 C   0  0  0  0  0  0  0  0  0  0  0  0
    3.5600    3.4983   -0.0000 C   0  0  0  0  0  0  0  0  0  0  0  0
    6.1941    0.7614   -0.0000 C   0  0  0  0  0  0  0  0  0  0  0  0
    6.1529    2.2842   -0.0000 C   0  0  0  0  0  0  0  0  0  0  0  0
    4.8359    4.5272   -0.0000 C   0  0  0  0  0  0  0  0  0  0  0  0
    7.4288    3.0456   -0.0000 C   0  0  0  0  0  0  0  0  0  0  0  0
    6.1117    5.3092   -0.0000 C   0  0  0  0  0  0  0  0  0  0  0  0
    7.4082    4.5684   -0.0000 C   0  0  0  0  0  0  0  0  0  0  0  0
   10.0216    3.0456   -0.0000 C   0  0  0  0  0  0  0  0  0  0  0  0
    8.6840    5.3709   -0.0000 C   0  0  0  0  0  0  0  0  0  0  0  0
    7.3876    5.8442   -0.0000 C   0  0  0  0  0  0  0  0  0  0  0  0
   10.0010    4.6095   -0.0000 C   0  0  0  0  0  0  0  0  0  0  0  0
    8.6634    6.6468   -0.0000 O   0  0  0  0  0  0  0  0  0  0  0  0
  1  2  2  0  0  0  0
  2  3  1  0  0  0  0
  2  4  1  0  0  0  0
  3  5  2  0  0  0  0
  3  6  1  0  0  0  0
  4  7  2  0  0  0  0
  5  8  1  0  0  0  0
  7  9  1  0  0  0  0
  8 10  1  0  0  0  0
  8 11  1  1  0  0  0
  9 12  1  0  0  0  0
 10 13  1  0  0  0  0
 10 14  1  1  0  0  0
 13 15  1  0  0  0  0
 14 16  1  0  0  0  0
 15 17  1  0  0  0  0
 15 18  1  1  0  0  0
 17 19  1  0  0  0  0
 17 20  1  1  0  0  0
 18 21  1  0  0  0  0
 19 22  2  0  0  0  0
  7  8  1  0  0  0  0
 13 12  1  6  0  0  0
 16 17  1  0  0  0  0
 19 21  1  0  0  0  0
M  END
>  <MolRegNo>
2057804

>  <m>
=

>  <Value>
46

>  <Unit>
nM

>  <Type>
Ki

>  <pValue>
7.34

>  <Ligand Efficiency>
0.46

>  <Binding Efficiency>
24.59

>  <Surface Efficiency>
21.49

>  <Assay Index>
985353

>  <Assay Category>


>  <Assay Organism>
Homo sapiens

>  <Target ID>
65

>  <Target Name>
Cytochrome P450 19A1

>  <Target Organism>
Homo sapiens

>  <Target Description>
Target is a single protein chain

>  <Sequence Accession>
P11511

>  <Reference>


>  <Pubmed ID>
26469743

>  <DOI>
10.1016/j.ejmech.2015.09.038

$$$$
2057805
Actelion Java MolfileCreator 1.0

 23 26  0  0  0  0  0  0  0  0999 V2000
    0.0000   -0.0000   -0.0000 Br  0  0  0  0  0  0  0  0  0  0  0  0
   -0.0410    1.2725   -0.0000 C   0  0  0  0  0  0  0  0  0  0  0  0
   -1.3752    2.0525   -0.0000 C   0  0  0  0  0  0  0  0  0  0  0  0
    1.2315    2.0730   -0.0000 C   0  0  0  0  0  0  0  0  0  0  0  0
   -2.6887    1.2931   -0.0000 C   0  0  0  0  0  0  0  0  0  0  0  0
   -1.3957    3.5713   -0.0000 C   0  0  0  0  0  0  0  0  0  0  0  0
    1.1904    3.5918   -0.0000 C   0  0  0  0  0  0  0  0  0  0  0  0
   -4.0023    2.0730   -0.0000 C   0  0  0  0  0  0  0  0  0  0  0  0
   -2.7298    4.3102   -0.0000 C   0  0  0  0  0  0  0  0  0  0  0  0
   -0.1231    4.3307   -0.0000 C   0  0  0  0  0  0  0  0  0  0  0  0
   -1.4367    4.8439   -0.0000 C   0  0  0  0  0  0  0  0  0  0  0  0
    2.4630    4.3513   -0.0000 C   0  0  0  0  0  0  0  0  0  0  0  0
   -5.1107    1.4778   -0.0000 O   0  0  0  0  0  0  0  0  0  0  0  0
   -4.0229    3.5918   -0.0000 C   0  0  0  0  0  0  0  0  0  0  0  0
   -0.1642    5.8701   -0.0000 C   0  0  0  0  0  0  0  0  0  0  0  0
    2.4425    5.8701   -0.0000 C   0  0  0  0  0  0  0  0  0  0  0  0
    5.0491    4.3513   -0.0000 C   0  0  0  0  0  0  0  0  0  0  0  0
   -5.1107    4.2281   -0.0000 C   0  0  0  0  0  0  0  0  0  0  0  0
    1.1083    6.6500   -0.0000 C   0  0  0  0  0  0  0  0  0  0  0  0
    3.7150    6.6706   -0.0000 C   0  0  0  0  0  0  0  0  0  0  0  0
    2.4219    7.1426   -0.0000 C   0  0  0  0  0  0  0  0  0  0  0  0
    5.0286    5.9111   -0.0000 C   0  0  0  0  0  0  0  0  0  0  0  0
    3.6945    7.9431   -0.0000 O   0  0  0  0  0  0  0  0  0  0  0  0
  2  1  1  6  0  0  0
  2  3  1  0  0  0  0
  2  4  1  0  0  0  0
  3  5  2  0  0  0  0
  3  6  1  0  0  0  0
  7  4  1  6  0  0  0
  5  8  1  0  0  0  0
  6  9  1  0  0  0  0
  6 10  1  0  0  0  0
  6 11  1  1  0  0  0
  7 12  1  0  0  0  0
  8 13  2  0  0  0  0
  8 14  1  0  0  0  0
 10 15  1  1  0  0  0
 12 16  1  0  0  0  0
 12 17  1  1  0  0  0
 14 18  1  0  0  0  0
 15 19  1  0  0  0  0
 16 20  1  0  0  0  0
 16 21  1  1  0  0  0
 17 22  1  0  0  0  0
 20 23  2  0  0  0  0
  7 10  1  0  0  0  0
  9 14  2  0  0  0  0
 16 19  1  0  0  0  0
 20 22  1  0  0  0  0
M  END
>  <MolRegNo>
2057805

>  <m>
=

>  <Value>
81

>  <Unit>
nM

>  <Type>
Ki

>  <pValue>
7.09

>  <Ligand Efficiency>
0.42

>  <Binding Efficiency>
18.79

>  <Surface Efficiency>
20.77

>  <Assay Index>
985353

>  <Assay Category>


>  <Assay Organism>
Homo sapiens

>  <Target ID>
65

>  <Target Name>
Cytochrome P450 19A1

>  <Target Organism>
Homo sapiens

>  <Target Description>
Target is a single protein chain

>  <Sequence Accession>
P11511

>  <Reference>


>  <Pubmed ID>
26469743

>  <DOI>
10.1016/j.ejmech.2015.09.038

$$$$
2057811
Actelion Java MolfileCreator 1.0

 28 31  0  0  0  0  0  0  0  0999 V2000
    0.0000   -0.0000   -0.0000 O   0  0  0  0  0  0  0  0  0  0  0  0
    1.0666    0.6359   -0.0000 C   0  0  0  0  0  0  0  0  0  0  0  0
    2.3384   -0.1026   -0.0000 C   0  0  0  0  0  0  0  0  0  0  0  0
    1.0461    2.1538   -0.0000 C   0  0  0  0  0  0  0  0  0  0  0  0
    2.3179   -1.3333   -0.0000 O   0  0  0  0  0  0  0  0  0  0  0  0
    3.6102    0.6974   -0.0000 C   0  0  0  0  0  0  0  0  0  0  0  0
    2.2974    2.9128   -0.0000 C   0  0  0  0  0  0  0  0  0  0  0  0
   -0.3077    2.9538   -0.0000 C   0  0  0  0  0  0  0  0  0  0  0  0
    3.5897    2.2153   -0.0000 C   0  0  0  0  0  0  0  0  0  0  0  0
    4.9025   -0.0410   -0.0000 C   0  0  0  0  0  0  0  0  0  0  0  0
   -0.3282    4.5332   -0.0000 C   0  0  0  0  0  0  0  0  0  0  0  0
    4.8614    2.9743   -0.0000 C   0  0  0  0  0  0  0  0  0  0  0  0
    3.5486    3.4871   -0.0000 C   0  0  0  0  0  0  0  0  0  0  0  0
    6.1742    0.7590   -0.0000 C   0  0  0  0  0  0  0  0  0  0  0  0
   -1.6820    5.3332   -0.0000 C   0  0  0  0  0  0  0  0  0  0  0  0
    6.1332    2.2769   -0.0000 C   0  0  0  0  0  0  0  0  0  0  0  0
    4.8204    4.5127   -0.0000 C   0  0  0  0  0  0  0  0  0  0  0  0
   -1.7025    6.9127   -0.0000 C   0  0  0  0  0  0  0  0  0  0  0  0
    7.4050    3.0358   -0.0000 C   0  0  0  0  0  0  0  0  0  0  0  0
    6.0922    5.2922   -0.0000 C   0  0  0  0  0  0  0  0  0  0  0  0
   -3.0563    7.7126   -0.0000 C   0  0  0  0  0  0  0  0  0  0  0  0
    7.3845    4.5537   -0.0000 C   0  0  0  0  0  0  0  0  0  0  0  0
    9.9895    3.0358   -0.0000 C   0  0  0  0  0  0  0  0  0  0  0  0
   -3.0769    8.9844   -0.0000 C   0  0  0  0  0  0  0  0  0  0  0  0
    8.6562    5.3537   -0.0000 C   0  0  0  0  0  0  0  0  0  0  0  0
    7.3639    5.8255   -0.0000 C   0  0  0  0  0  0  0  0  0  0  0  0
    9.9690    4.5948   -0.0000 C   0  0  0  0  0  0  0  0  0  0  0  0
    8.6357    6.6255   -0.0000 O   0  0  0  0  0  0  0  0  0  0  0  0
  1  2  2  0  0  0  0
  2  3  1  0  0  0  0
  2  4  1  0  0  0  0
  3  5  1  0  0  0  0
  3  6  2  0  0  0  0
  4  7  2  0  0  0  0
  4  8  1  0  0  0  0
  6  9  1  0  0  0  0
  6 10  1  0  0  0  0
  8 11  1  0  0  0  0
  9 12  1  0  0  0  0
  9 13  1  1  0  0  0
 10 14  1  0  0  0  0
 11 15  1  0  0  0  0
 12 16  1  0  0  0  0
 12 17  1  1  0  0  0
 15 18  1  0  0  0  0
 16 19  1  0  0  0  0
 17 20  1  0  0  0  0
 18 21  1  0  0  0  0
 19 22  1  0  0  0  0
 19 23  1  1  0  0  0
 21 24  1  0  0  0  0
 22 25  1  0  0  0  0
 22 26  1  1  0  0  0
 23 27  1  0  0  0  0
 25 28  2  0  0  0  0
  7  9  1  0  0  0  0
 16 14  1  6  0  0  0
 20 22  1  0  0  0  0
 25 27  1  0  0  0  0
M  END
>  <MolRegNo>
2057811

>  <m>
=

>  <Value>
31

>  <Unit>
nM

>  <Type>
Ki

>  <pValue>
7.51

>  <Ligand Efficiency>
0.37

>  <Binding Efficiency>
19.53

>  <Surface Efficiency>
13.81

>  <Assay Index>
985353

>  <Assay Category>


>  <Assay Organism>
Homo sapiens

>  <Target ID>
65

>  <Target Name>
Cytochrome P450 19A1

>  <Target Organism>
Homo sapiens

>  <Target Description>
Target is a single protein chain

>  <Sequence Accession>
P11511

>  <Reference>


>  <Pubmed ID>
26469743

>  <DOI>
10.1016/j.ejmech.2015.09.038

$$$$
2057812
Actelion Java MolfileCreator 1.0

 23 26  0  0  0  0  0  0  0  0999 V2000
    0.0000   -0.0000   -0.0000 O   0  0  0  0  0  0  0  0  0  0  0  0
    1.0676    0.6365   -0.0000 C   0  0  0  0  0  0  0  0  0  0  0  0
    1.0471    2.1557   -0.0000 C   0  0  0  0  0  0  0  0  0  0  0  0
    2.3405   -0.1027   -0.0000 C   0  0  0  0  0  0  0  0  0  0  0  0
   -0.3080    2.9564   -0.0000 O   0  0  0  0  0  0  0  0  0  0  0  0
    2.2995    2.9154   -0.0000 C   0  0  0  0  0  0  0  0  0  0  0  0
    3.6134    0.6980   -0.0000 C   0  0  0  0  0  0  0  0  0  0  0  0
   -0.3285    4.2294   -0.0000 C   0  0  0  0  0  0  0  0  0  0  0  0
    3.5929    2.2173   -0.0000 C   0  0  0  0  0  0  0  0  0  0  0  0
    4.9069   -0.0411   -0.0000 C   0  0  0  0  0  0  0  0  0  0  0  0
    4.8658    2.9770   -0.0000 C   0  0  0  0  0  0  0  0  0  0  0  0
    3.5518    3.4902   -0.0000 C   0  0  0  0  0  0  0  0  0  0  0  0
    6.1798    0.7596   -0.0000 C   0  0  0  0  0  0  0  0  0  0  0  0
    6.1387    2.2789   -0.0000 C   0  0  0  0  0  0  0  0  0  0  0  0
    4.8247    4.5168   -0.0000 C   0  0  0  0  0  0  0  0  0  0  0  0
    7.4116    3.0386   -0.0000 C   0  0  0  0  0  0  0  0  0  0  0  0
    6.0977    5.2970   -0.0000 C   0  0  0  0  0  0  0  0  0  0  0  0
    7.3911    4.5578   -0.0000 C   0  0  0  0  0  0  0  0  0  0  0  0
    9.9985    3.0386   -0.0000 C   0  0  0  0  0  0  0  0  0  0  0  0
    8.6640    5.3585   -0.0000 C   0  0  0  0  0  0  0  0  0  0  0  0
    7.3706    5.8308   -0.0000 C   0  0  0  0  0  0  0  0  0  0  0  0
    9.9780    4.5989   -0.0000 C   0  0  0  0  0  0  0  0  0  0  0  0
    8.6435    6.6315   -0.0000 O   0  0  0  0  0  0  0  0  0  0  0  0
  1  2  2  0  0  0  0
  2  3  1  0  0  0  0
  2  4  1  0  0  0  0
  3  5  1  0  0  0  0
  3  6  2  0  0  0  0
  4  7  2  0  0  0  0
  5  8  1  0  0  0  0
  6  9  1  0  0  0  0
  7 10  1  0  0  0  0
  9 11  1  0  0  0  0
  9 12  1  1  0  0  0
 10 13  1  0  0  0  0
 11 14  1  0  0  0  0
 11 15  1  1  0  0  0
 14 16  1  0  0  0  0
 15 17  1  0  0  0  0
 16 18  1  0  0  0  0
 16 19  1  1  0  0  0
 18 20  1  0  0  0  0
 18 21  1  1  0  0  0
 19 22  1  0  0  0  0
 20 23  2  0  0  0  0
  7  9  1  0  0  0  0
 14 13  1  6  0  0  0
 17 18  1  0  0  0  0
 20 22  1  0  0  0  0
M  END
>  <MolRegNo>
2057812

>  <m>
=

>  <Value>
95

>  <Unit>
nM

>  <Type>
Ki

>  <pValue>
7.02

>  <Ligand Efficiency>
0.42

>  <Binding Efficiency>
22.33

>  <Surface Efficiency>
16.19

>  <Assay Index>
985353

>  <Assay Category>


>  <Assay Organism>
Homo sapiens

>  <Target ID>
65

>  <Target Name>
Cytochrome P450 19A1

>  <Target Organism>
Homo sapiens

>  <Target Description>
Target is a single protein chain

>  <Sequence Accession>
P11511

>  <Reference>


>  <Pubmed ID>
26469743

>  <DOI>
10.1016/j.ejmech.2015.09.038

$$$$
2057813
Actelion Java MolfileCreator 1.0

 30 34  0  0  0  0  0  0  0  0999 V2000
    0.0000   -0.0000   -0.0000 O   0  0  0  0  0  0  0  0  0  0  0  0
    1.0498    0.6259   -0.0000 C   0  0  0  0  0  0  0  0  0  0  0  0
    1.0296    2.1198   -0.0000 C   0  0  0  0  0  0  0  0  0  0  0  0
    2.3015   -0.1009   -0.0000 C   0  0  0  0  0  0  0  0  0  0  0  0
    2.2611    2.8668   -0.0000 C   0  0  0  0  0  0  0  0  0  0  0  0
   -0.3028    2.9072   -0.0000 C   0  0  0  0  0  0  0  0  0  0  0  0
    3.5532    0.6864   -0.0000 C   0  0  0  0  0  0  0  0  0  0  0  0
    3.5330    2.1804   -0.0000 C   0  0  0  0  0  0  0  0  0  0  0  0
   -0.3230    4.4617   -0.0000 C   0  0  0  0  0  0  0  0  0  0  0  0
    4.8251   -0.0404   -0.0000 C   0  0  0  0  0  0  0  0  0  0  0  0
    4.7847    2.9274   -0.0000 C   0  0  0  0  0  0  0  0  0  0  0  0
    3.4927    3.4321   -0.0000 C   0  0  0  0  0  0  0  0  0  0  0  0
   -1.6555    5.2491   -0.0000 C   0  0  0  0  0  0  0  0  0  0  0  0
    6.0768    0.7470   -0.0000 C   0  0  0  0  0  0  0  0  0  0  0  0
    6.0364    2.2410   -0.0000 C   0  0  0  0  0  0  0  0  0  0  0  0
    4.7444    4.4415   -0.0000 C   0  0  0  0  0  0  0  0  0  0  0  0
   -1.6757    6.8036   -0.0000 C   0  0  0  0  0  0  0  0  0  0  0  0
    7.2881    2.9879   -0.0000 C   0  0  0  0  0  0  0  0  0  0  0  0
    5.9961    5.2087   -0.0000 C   0  0  0  0  0  0  0  0  0  0  0  0
   -0.3634    7.5708   -0.0000 C   0  0  0  0  0  0  0  0  0  0  0  0
   -3.0081    7.5910   -0.0000 C   0  0  0  0  0  0  0  0  0  0  0  0
    7.2680    4.4819   -0.0000 C   0  0  0  0  0  0  0  0  0  0  0  0
    9.8319    2.9879   -0.0000 C   0  0  0  0  0  0  0  0  0  0  0  0
   -0.3634    9.1253   -0.0000 C   0  0  0  0  0  0  0  0  0  0  0  0
   -3.0081    9.1455   -0.0000 C   0  0  0  0  0  0  0  0  0  0  0  0
    8.5197    5.2693   -0.0000 C   0  0  0  0  0  0  0  0  0  0  0  0
    7.2478    5.7336   -0.0000 C   0  0  0  0  0  0  0  0  0  0  0  0
    9.8117    4.5223   -0.0000 C   0  0  0  0  0  0  0  0  0  0  0  0
   -1.6959    9.9127   -0.0000 C   0  0  0  0  0  0  0  0  0  0  0  0
    8.4995    6.5210   -0.0000 O   0  0  0  0  0  0  0  0  0  0  0  0
  1  2  2  0  0  0  0
  2  3  1  0  0  0  0
  2  4  1  0  0  0  0
  3  5  2  0  0  0  0
  3  6  1  0  0  0  0
  4  7  2  0  0  0  0
  5  8  1  0  0  0  0
  6  9  1  0  0  0  0
  7 10  1  0  0  0  0
  8 11  1  0  0  0  0
  8 12  1  1  0  0  0
  9 13  1  0  0  0  0
 10 14  1  0  0  0  0
 11 15  1  0  0  0  0
 11 16  1  1  0  0  0
 13 17  1  0  0  0  0
 15 18  1  0  0  0  0
 16 19  1  0  0  0  0
 17 20  2  0  0  0  0
 17 21  1  0  0  0  0
 18 22  1  0  0  0  0
 18 23  1  1  0  0  0
 20 24  1  0  0  0  0
 21 25  2  0  0  0  0
 22 26  1  0  0  0  0
 22 27  1  1  0  0  0
 23 28  1  0  0  0  0
 24 29  2  0  0  0  0
 26 30  2  0  0  0  0
  7  8  1  0  0  0  0
 15 14  1  6  0  0  0
 19 22  1  0  0  0  0
 25 29  1  0  0  0  0
 26 28  1  0  0  0  0
M  END
>  <MolRegNo>
2057813

>  <m>
=

>  <Value>
16.1

>  <Unit>
nM

>  <Type>
Ki

>  <pValue>
7.79

>  <Ligand Efficiency>
0.35

>  <Binding Efficiency>
19.36

>  <Surface Efficiency>
22.83

>  <Assay Index>
985353

>  <Assay Category>


>  <Assay Organism>
Homo sapiens

>  <Target ID>
65

>  <Target Name>
Cytochrome P450 19A1

>  <Target Organism>
Homo sapiens

>  <Target Description>
Target is a single protein chain

>  <Sequence Accession>
P11511

>  <Reference>


>  <Pubmed ID>
26469743

>  <DOI>
10.1016/j.ejmech.2015.09.038

$$$$
2057834
Actelion Java MolfileCreator 1.0

 21 24  0  0  0  0  0  0  0  0999 V2000
    0.0000   -0.0000   -0.0000 O   0  0  0  0  0  0  0  0  0  0  0  0
   -0.0204    1.2626   -0.0000 C   0  0  0  0  0  0  0  0  0  0  0  0
    1.2422    2.0568   -0.0000 C   0  0  0  0  0  0  0  0  0  0  0  0
   -1.3237    2.0364   -0.0000 C   0  0  0  0  0  0  0  0  0  0  0  0
    2.5251    1.3237   -0.0000 C   0  0  0  0  0  0  0  0  0  0  0  0
    1.2218    3.5637   -0.0000 C   0  0  0  0  0  0  0  0  0  0  0  0
   -1.3440    3.5433   -0.0000 C   0  0  0  0  0  0  0  0  0  0  0  0
    3.7877    2.1178   -0.0000 C   0  0  0  0  0  0  0  0  0  0  0  0
    2.4844    4.3172   -0.0000 C   0  0  0  0  0  0  0  0  0  0  0  0
   -0.1018    4.2968   -0.0000 C   0  0  0  0  0  0  0  0  0  0  0  0
    1.1811    4.8263   -0.0000 C   0  0  0  0  0  0  0  0  0  0  0  0
    3.7470    3.6248   -0.0000 C   0  0  0  0  0  0  0  0  0  0  0  0
    2.4437    5.8444   -0.0000 C   0  0  0  0  0  0  0  0  0  0  0  0
    5.0095    4.3782   -0.0000 C   0  0  0  0  0  0  0  0  0  0  0  0
    3.7062    6.6183   -0.0000 C   0  0  0  0  0  0  0  0  0  0  0  0
    4.9892    5.8852   -0.0000 C   0  0  0  0  0  0  0  0  0  0  0  0
    7.5754    4.3782   -0.0000 C   0  0  0  0  0  0  0  0  0  0  0  0
    6.2517    6.6794   -0.0000 C   0  0  0  0  0  0  0  0  0  0  0  0
    4.9688    7.1477   -0.0000 C   0  0  0  0  0  0  0  0  0  0  0  0
    7.5550    5.9259   -0.0000 C   0  0  0  0  0  0  0  0  0  0  0  0
    6.2314    7.9419   -0.0000 O   0  0  0  0  0  0  0  0  0  0  0  0
  1  2  2  0  0  0  0
  2  3  1  0  0  0  0
  2  4  1  0  0  0  0
  3  5  2  0  0  0  0
  3  6  1  0  0  0  0
  4  7  1  0  0  0  0
  5  8  1  0  0  0  0
  6  9  1  0  0  0  0
  6 10  1  0  0  0  0
  6 11  1  6  0  0  0
 12  8  1  1  0  0  0
  9 13  1  6  0  0  0
 12 14  1  0  0  0  0
 13 15  1  0  0  0  0
 14 16  1  0  0  0  0
 14 17  1  6  0  0  0
 16 18  1  0  0  0  0
 16 19  1  6  0  0  0
 17 20  1  0  0  0  0
 18 21  2  0  0  0  0
  7 10  1  0  0  0  0
  9 12  1  0  0  0  0
 15 16  1  0  0  0  0
 18 20  1  0  0  0  0
M  END
>  <MolRegNo>
2057834

>  <m>
=

>  <Value>
120

>  <Unit>
nM

>  <Type>
Ki

>  <pValue>
6.92

>  <Ligand Efficiency>
0.45

>  <Binding Efficiency>
24.16

>  <Surface Efficiency>
20.27

>  <Assay Index>
985353

>  <Assay Category>


>  <Assay Organism>
Homo sapiens

>  <Target ID>
65

>  <Target Name>
Cytochrome P450 19A1

>  <Target Organism>
Homo sapiens

>  <Target Description>
Target is a single protein chain

>  <Sequence Accession>
P11511

>  <Reference>


>  <Pubmed ID>
26469743

>  <DOI>
10.1016/j.ejmech.2015.09.038

$$$$
2057835
Actelion Java MolfileCreator 1.0

 32 36  0  0  0  0  0  0  0  0999 V2000
    0.0000   -0.0000   -0.0000 S   0  0  0  0  0  0  0  0  0  0  0  0
   -0.0409   -1.2284   -0.0000 O   0  0  0  0  0  0  0  0  0  0  0  0
   -1.0851    0.6551   -0.0000 O   0  0  0  0  0  0  0  0  0  0  0  0
    1.3308    0.7780   -0.0000 O   0  0  0  0  0  0  0  0  0  0  0  0
   -1.1056   -0.5937   -0.0000 N   0  0  0  0  0  0  0  0  0  0  0  0
    1.3308    2.3544   -0.0000 C   0  0  0  0  0  0  0  0  0  0  0  0
   -0.0205    3.1529   -0.0000 C   0  0  0  0  0  0  0  0  0  0  0  0
    2.6615    3.1324   -0.0000 C   0  0  0  0  0  0  0  0  0  0  0  0
   -0.0409    4.7293   -0.0000 C   0  0  0  0  0  0  0  0  0  0  0  0
    2.6411    4.7089   -0.0000 C   0  0  0  0  0  0  0  0  0  0  0  0
    1.2898    5.5073   -0.0000 C   0  0  0  0  0  0  0  0  0  0  0  0
    1.2693    7.0838   -0.0000 C   0  0  0  0  0  0  0  0  0  0  0  0
   -0.0409    7.8618   -0.0000 C   0  0  0  0  0  0  0  0  0  0  0  0
    2.5387    7.8822   -0.0000 C   0  0  0  0  0  0  0  0  0  0  0  0
   -1.1465    7.2680   -0.0000 O   0  0  0  0  0  0  0  0  0  0  0  0
   -0.0614    9.3768   -0.0000 C   0  0  0  0  0  0  0  0  0  0  0  0
    2.5182    9.3973   -0.0000 C   0  0  0  0  0  0  0  0  0  0  0  0
    3.8285    7.1452   -0.0000 C   0  0  0  0  0  0  0  0  0  0  0  0
    1.1875   10.1343   -0.0000 C   0  0  0  0  0  0  0  0  0  0  0  0
    3.7876   10.1548   -0.0000 C   0  0  0  0  0  0  0  0  0  0  0  0
    2.4773   10.6666   -0.0000 C   0  0  0  0  0  0  0  0  0  0  0  0
    5.0979    7.9437   -0.0000 C   0  0  0  0  0  0  0  0  0  0  0  0
    5.0569    9.4587   -0.0000 C   0  0  0  0  0  0  0  0  0  0  0  0
    3.7466   11.6903   -0.0000 C   0  0  0  0  0  0  0  0  0  0  0  0
    6.3263   10.2162   -0.0000 C   0  0  0  0  0  0  0  0  0  0  0  0
    5.0160   12.4683   -0.0000 C   0  0  0  0  0  0  0  0  0  0  0  0
    6.3058   11.7312   -0.0000 C   0  0  0  0  0  0  0  0  0  0  0  0
    8.9059   10.2162   -0.0000 C   0  0  0  0  0  0  0  0  0  0  0  0
    7.5751   12.5297   -0.0000 C   0  0  0  0  0  0  0  0  0  0  0  0
    6.2853   13.0006   -0.0000 C   0  0  0  0  0  0  0  0  0  0  0  0
    8.8854   11.7722   -0.0000 C   0  0  0  0  0  0  0  0  0  0  0  0
    7.5547   13.7990   -0.0000 O   0  0  0  0  0  0  0  0  0  0  0  0
  1  2  2  0  0  0  0
  1  3  2  0  0  0  0
  1  4  1  0  0  0  0
  1  5  1  0  0  0  0
  4  6  1  0  0  0  0
  6  7  2  0  0  0  0
  6  8  1  0  0  0  0
  7  9  1  0  0  0  0
  8 10  2  0  0  0  0
  9 11  2  0  0  0  0
 11 12  1  0  0  0  0
 12 13  1  0  0  0  0
 12 14  2  0  0  0  0
 13 15  2  0  0  0  0
 13 16  1  0  0  0  0
 14 17  1  0  0  0  0
 14 18  1  0  0  0  0
 16 19  1  0  0  0  0
 17 20  1  0  0  0  0
 17 21  1  6  0  0  0
 18 22  1  0  0  0  0
 20 23  1  0  0  0  0
 20 24  1  6  0  0  0
 23 25  1  0  0  0  0
 24 26  1  0  0  0  0
 25 27  1  0  0  0  0
 25 28  1  6  0  0  0
 27 29  1  0  0  0  0
 27 30  1  6  0  0  0
 28 31  1  0  0  0  0
 29 32  2  0  0  0  0
 10 11  1  0  0  0  0
 17 19  1  0  0  0  0
 23 22  1  1  0  0  0
 26 27  1  0  0  0  0
 29 31  1  0  0  0  0
M  END
>  <MolRegNo>
2057835

>  <m>
=

>  <Value>
97

>  <Unit>
nM

>  <Type>
Ki

>  <pValue>
7.01

>  <Ligand Efficiency>
0.3

>  <Binding Efficiency>
15.33

>  <Surface Efficiency>
6.77

>  <Assay Index>
985353

>  <Assay Category>


>  <Assay Organism>
Homo sapiens

>  <Target ID>
65

>  <Target Name>
Cytochrome P450 19A1

>  <Target Organism>
Homo sapiens

>  <Target Description>
Target is a single protein chain

>  <Sequence Accession>
P11511

>  <Reference>


>  <Pubmed ID>
26469743

>  <DOI>
10.1016/j.ejmech.2015.09.038

$$$$
2057838
Actelion Java MolfileCreator 1.0

 26 29  0  0  0  0  0  0  0  0999 V2000
    0.0000   -0.0000   -0.0000 O   0  0  0  0  0  0  0  0  0  0  0  0
    1.0659    0.6354   -0.0000 C   0  0  0  0  0  0  0  0  0  0  0  0
    2.3367   -0.1025   -0.0000 C   0  0  0  0  0  0  0  0  0  0  0  0
    1.0454    2.1522   -0.0000 C   0  0  0  0  0  0  0  0  0  0  0  0
    3.6075    0.6969   -0.0000 C   0  0  0  0  0  0  0  0  0  0  0  0
    2.2957    2.9106   -0.0000 C   0  0  0  0  0  0  0  0  0  0  0  0
    3.5870    2.2137   -0.0000 C   0  0  0  0  0  0  0  0  0  0  0  0
    4.8988   -0.0410   -0.0000 C   0  0  0  0  0  0  0  0  0  0  0  0
    4.8578    2.9721   -0.0000 C   0  0  0  0  0  0  0  0  0  0  0  0
    3.5460    3.4845   -0.0000 C   0  0  0  0  0  0  0  0  0  0  0  0
    6.1696    0.7584   -0.0000 C   0  0  0  0  0  0  0  0  0  0  0  0
    4.8988   -1.5783   -0.0000 C   0  0  0  0  0  0  0  0  0  0  0  0
    6.1286    2.2752   -0.0000 C   0  0  0  0  0  0  0  0  0  0  0  0
    4.8168    4.5094   -0.0000 C   0  0  0  0  0  0  0  0  0  0  0  0
    3.5460   -2.3367   -0.0000 C   0  0  0  0  0  0  0  0  0  0  0  0
    7.3995    3.0336   -0.0000 C   0  0  0  0  0  0  0  0  0  0  0  0
    6.0877    5.2883   -0.0000 C   0  0  0  0  0  0  0  0  0  0  0  0
    3.5460   -3.8740   -0.0000 C   0  0  0  0  0  0  0  0  0  0  0  0
    7.3790    4.5504   -0.0000 C   0  0  0  0  0  0  0  0  0  0  0  0
    9.9821    3.0336   -0.0000 C   0  0  0  0  0  0  0  0  0  0  0  0
    2.1932   -4.6324   -0.0000 C   0  0  0  0  0  0  0  0  0  0  0  0
    8.6498    5.3498   -0.0000 C   0  0  0  0  0  0  0  0  0  0  0  0
    7.3585    5.8212   -0.0000 C   0  0  0  0  0  0  0  0  0  0  0  0
    9.9616    4.5914   -0.0000 C   0  0  0  0  0  0  0  0  0  0  0  0
    2.1727   -5.8622   -0.0000 C   0  0  0  0  0  0  0  0  0  0  0  0
    8.6293    6.6206   -0.0000 O   0  0  0  0  0  0  0  0  0  0  0  0
  1  2  2  0  0  0  0
  2  3  1  0  0  0  0
  2  4  1  0  0  0  0
  3  5  2  0  0  0  0
  4  6  1  0  0  0  0
  5  7  1  0  0  0  0
  5  8  1  0  0  0  0
  7  9  1  0  0  0  0
  7 10  1  6  0  0  0
  8 11  1  0  0  0  0
  8 12  1  6  0  0  0
  9 13  1  0  0  0  0
  9 14  1  6  0  0  0
 12 15  1  0  0  0  0
 13 16  1  0  0  0  0
 14 17  1  0  0  0  0
 15 18  1  0  0  0  0
 16 19  1  0  0  0  0
 16 20  1  6  0  0  0
 18 21  1  0  0  0  0
 19 22  1  0  0  0  0
 19 23  1  6  0  0  0
 20 24  1  0  0  0  0
 21 25  1  0  0  0  0
 22 26  2  0  0  0  0
  6  7  1  0  0  0  0
 13 11  1  1  0  0  0
 17 19  1  0  0  0  0
 22 24  1  0  0  0  0
M  END
>  <MolRegNo>
2057838

>  <m>
=

>  <Value>
2.8

>  <Unit>
nM

>  <Type>
Ki

>  <pValue>
8.55

>  <Ligand Efficiency>
0.45

>  <Binding Efficiency>
23.99

>  <Surface Efficiency>
25.05

>  <Assay Index>
985353

>  <Assay Category>


>  <Assay Organism>
Homo sapiens

>  <Target ID>
65

>  <Target Name>
Cytochrome P450 19A1

>  <Target Organism>
Homo sapiens

>  <Target Description>
Target is a single protein chain

>  <Sequence Accession>
P11511

>  <Reference>


>  <Pubmed ID>
26469743

>  <DOI>
10.1016/j.ejmech.2015.09.038

$$$$
2057839
Actelion Java MolfileCreator 1.0

 27 30  0  0  0  0  0  0  0  0999 V2000
    0.0000   -0.0000   -0.0000 O   0  0  0  0  0  0  0  0  0  0  0  0
    1.0645    0.6346   -0.0000 C   0  0  0  0  0  0  0  0  0  0  0  0
    2.3338   -0.1024   -0.0000 C   0  0  0  0  0  0  0  0  0  0  0  0
    1.0441    2.1495   -0.0000 C   0  0  0  0  0  0  0  0  0  0  0  0
    3.6030    0.6960   -0.0000 C   0  0  0  0  0  0  0  0  0  0  0  0
    2.2928    2.9070   -0.0000 C   0  0  0  0  0  0  0  0  0  0  0  0
    3.5826    2.2110   -0.0000 C   0  0  0  0  0  0  0  0  0  0  0  0
    4.8928   -0.0409   -0.0000 C   0  0  0  0  0  0  0  0  0  0  0  0
    4.8518    2.9684   -0.0000 C   0  0  0  0  0  0  0  0  0  0  0  0
    3.5416    3.4802   -0.0000 C   0  0  0  0  0  0  0  0  0  0  0  0
    6.1620    0.7575   -0.0000 C   0  0  0  0  0  0  0  0  0  0  0  0
    4.8928   -1.5763   -0.0000 C   0  0  0  0  0  0  0  0  0  0  0  0
    6.1211    2.2724   -0.0000 C   0  0  0  0  0  0  0  0  0  0  0  0
    4.8109    4.5038   -0.0000 C   0  0  0  0  0  0  0  0  0  0  0  0
    3.5416   -2.3338   -0.0000 C   0  0  0  0  0  0  0  0  0  0  0  0
    7.3903    3.0298   -0.0000 C   0  0  0  0  0  0  0  0  0  0  0  0
    6.0801    5.2817   -0.0000 C   0  0  0  0  0  0  0  0  0  0  0  0
    3.5416   -3.8692   -0.0000 C   0  0  0  0  0  0  0  0  0  0  0  0
    7.3699    4.5448   -0.0000 C   0  0  0  0  0  0  0  0  0  0  0  0
    9.9698    3.0298   -0.0000 C   0  0  0  0  0  0  0  0  0  0  0  0
    2.1905   -4.6266   -0.0000 C   0  0  0  0  0  0  0  0  0  0  0  0
    8.6391    5.3432   -0.0000 C   0  0  0  0  0  0  0  0  0  0  0  0
    7.3494    5.8140   -0.0000 C   0  0  0  0  0  0  0  0  0  0  0  0
    9.9493    4.5857   -0.0000 C   0  0  0  0  0  0  0  0  0  0  0  0
    2.1905   -6.1620   -0.0000 C   0  0  0  0  0  0  0  0  0  0  0  0
    8.6186    6.6124   -0.0000 O   0  0  0  0  0  0  0  0  0  0  0  0
    1.1055   -6.7762   -0.0000 C   0  0  0  0  0  0  0  0  0  0  0  0
  1  2  2  0  0  0  0
  2  3  1  0  0  0  0
  2  4  1  0  0  0  0
  3  5  2  0  0  0  0
  4  6  1  0  0  0  0
  5  7  1  0  0  0  0
  5  8  1  0  0  0  0
  7  9  1  0  0  0  0
  7 10  1  6  0  0  0
  8 11  1  0  0  0  0
  8 12  1  6  0  0  0
  9 13  1  0  0  0  0
  9 14  1  6  0  0  0
 12 15  1  0  0  0  0
 13 16  1  0  0  0  0
 14 17  1  0  0  0  0
 15 18  1  0  0  0  0
 16 19  1  0  0  0  0
 16 20  1  6  0  0  0
 18 21  1  0  0  0  0
 19 22  1  0  0  0  0
 19 23  1  6  0  0  0
 20 24  1  0  0  0  0
 21 25  1  0  0  0  0
 22 26  2  0  0  0  0
 25 27  1  0  0  0  0
  6  7  1  0  0  0  0
 13 11  1  1  0  0  0
 17 19  1  0  0  0  0
 22 24  1  0  0  0  0
M  END
>  <MolRegNo>
2057839

>  <m>
=

>  <Value>
2.8

>  <Unit>
nM

>  <Type>
Ki

>  <pValue>
8.55

>  <Ligand Efficiency>
0.43

>  <Binding Efficiency>
23.08

>  <Surface Efficiency>
25.05

>  <Assay Index>
985353

>  <Assay Category>


>  <Assay Organism>
Homo sapiens

>  <Target ID>
65

>  <Target Name>
Cytochrome P450 19A1

>  <Target Organism>
Homo sapiens

>  <Target Description>
Target is a single protein chain

>  <Sequence Accession>
P11511

>  <Reference>


>  <Pubmed ID>
26469743

>  <DOI>
10.1016/j.ejmech.2015.09.038

$$$$
2057840
Actelion Java MolfileCreator 1.0

 29 32  0  0  0  0  0  0  0  0999 V2000
    0.0000   -0.0000   -0.0000 O   0  0  0  0  0  0  0  0  0  0  0  0
    1.0627    0.6335   -0.0000 C   0  0  0  0  0  0  0  0  0  0  0  0
    2.3297   -0.1022   -0.0000 C   0  0  0  0  0  0  0  0  0  0  0  0
    1.0422    2.1458   -0.0000 C   0  0  0  0  0  0  0  0  0  0  0  0
    3.5967    0.6948   -0.0000 C   0  0  0  0  0  0  0  0  0  0  0  0
    2.2888    2.9019   -0.0000 C   0  0  0  0  0  0  0  0  0  0  0  0
    3.5763    2.2071   -0.0000 C   0  0  0  0  0  0  0  0  0  0  0  0
    4.8842   -0.0409   -0.0000 C   0  0  0  0  0  0  0  0  0  0  0  0
    4.8433    2.9632   -0.0000 C   0  0  0  0  0  0  0  0  0  0  0  0
    3.5354    3.4741   -0.0000 C   0  0  0  0  0  0  0  0  0  0  0  0
    6.1512    0.7561   -0.0000 C   0  0  0  0  0  0  0  0  0  0  0  0
    4.8842   -1.5736   -0.0000 C   0  0  0  0  0  0  0  0  0  0  0  0
    6.1103    2.2684   -0.0000 C   0  0  0  0  0  0  0  0  0  0  0  0
    4.8024    4.4959   -0.0000 C   0  0  0  0  0  0  0  0  0  0  0  0
    3.5354   -2.3297   -0.0000 C   0  0  0  0  0  0  0  0  0  0  0  0
    7.3774    3.0245   -0.0000 C   0  0  0  0  0  0  0  0  0  0  0  0
    6.0695    5.2725   -0.0000 C   0  0  0  0  0  0  0  0  0  0  0  0
    3.5354   -3.8624   -0.0000 C   0  0  0  0  0  0  0  0  0  0  0  0
    7.3569    4.5368   -0.0000 C   0  0  0  0  0  0  0  0  0  0  0  0
    9.9523    3.0245   -0.0000 C   0  0  0  0  0  0  0  0  0  0  0  0
    2.1866   -4.6185   -0.0000 C   0  0  0  0  0  0  0  0  0  0  0  0
    8.6240    5.3338   -0.0000 C   0  0  0  0  0  0  0  0  0  0  0  0
    7.3365    5.8038   -0.0000 C   0  0  0  0  0  0  0  0  0  0  0  0
    9.9319    4.5776   -0.0000 C   0  0  0  0  0  0  0  0  0  0  0  0
    2.1866   -6.1512   -0.0000 C   0  0  0  0  0  0  0  0  0  0  0  0
    8.6035    6.6008   -0.0000 O   0  0  0  0  0  0  0  0  0  0  0  0
    0.8379   -6.9073   -0.0000 C   0  0  0  0  0  0  0  0  0  0  0  0
    0.8379   -8.4400   -0.0000 C   0  0  0  0  0  0  0  0  0  0  0  0
   -0.2452   -9.0531   -0.0000 C   0  0  0  0  0  0  0  0  0  0  0  0
  1  2  2  0  0  0  0
  2  3  1  0  0  0  0
  2  4  1  0  0  0  0
  3  5  2  0  0  0  0
  4  6  1  0  0  0  0
  5  7  1  0  0  0  0
  5  8  1  0  0  0  0
  7  9  1  0  0  0  0
  7 10  1  6  0  0  0
  8 11  1  0  0  0  0
  8 12  1  6  0  0  0
  9 13  1  0  0  0  0
  9 14  1  6  0  0  0
 12 15  1  0  0  0  0
 13 16  1  0  0  0  0
 14 17  1  0  0  0  0
 15 18  1  0  0  0  0
 16 19  1  0  0  0  0
 16 20  1  6  0  0  0
 18 21  1  0  0  0  0
 19 22  1  0  0  0  0
 19 23  1  6  0  0  0
 20 24  1  0  0  0  0
 21 25  1  0  0  0  0
 22 26  2  0  0  0  0
 25 27  1  0  0  0  0
 27 28  1  0  0  0  0
 28 29  1  0  0  0  0
  6  7  1  0  0  0  0
 13 11  1  1  0  0  0
 17 19  1  0  0  0  0
 22 24  1  0  0  0  0
M  END
>  <MolRegNo>
2057840

>  <m>
=

>  <Value>
2.8

>  <Unit>
nM

>  <Type>
Ki

>  <pValue>
8.55

>  <Ligand Efficiency>
0.4

>  <Binding Efficiency>
21.46

>  <Surface Efficiency>
25.05

>  <Assay Index>
985353

>  <Assay Category>


>  <Assay Organism>
Homo sapiens

>  <Target ID>
65

>  <Target Name>
Cytochrome P450 19A1

>  <Target Organism>
Homo sapiens

>  <Target Description>
Target is a single protein chain

>  <Sequence Accession>
P11511

>  <Reference>


>  <Pubmed ID>
26469743

>  <DOI>
10.1016/j.ejmech.2015.09.038

$$$$
2057841
Actelion Java MolfileCreator 1.0

 26 29  0  0  0  0  0  0  0  0999 V2000
    0.0000   -0.0000   -0.0000 O   0  0  0  0  0  0  0  0  0  0  0  0
    1.0659    0.6354   -0.0000 C   0  0  0  0  0  0  0  0  0  0  0  0
    2.3367   -0.1025   -0.0000 C   0  0  0  0  0  0  0  0  0  0  0  0
    1.0454    2.1522   -0.0000 C   0  0  0  0  0  0  0  0  0  0  0  0
    3.6075    0.6969   -0.0000 C   0  0  0  0  0  0  0  0  0  0  0  0
    2.2957    2.9106   -0.0000 C   0  0  0  0  0  0  0  0  0  0  0  0
    3.5870    2.2137   -0.0000 C   0  0  0  0  0  0  0  0  0  0  0  0
    4.8988   -0.0410   -0.0000 C   0  0  0  0  0  0  0  0  0  0  0  0
    4.8578    2.9721   -0.0000 C   0  0  0  0  0  0  0  0  0  0  0  0
    3.5460    3.4845   -0.0000 C   0  0  0  0  0  0  0  0  0  0  0  0
    6.1696    0.7584   -0.0000 C   0  0  0  0  0  0  0  0  0  0  0  0
    4.8988   -1.5783   -0.0000 C   0  0  0  0  0  0  0  0  0  0  0  0
    6.1286    2.2752   -0.0000 C   0  0  0  0  0  0  0  0  0  0  0  0
    4.8168    4.5094   -0.0000 C   0  0  0  0  0  0  0  0  0  0  0  0
    3.5460   -2.3367   -0.0000 C   0  0  0  0  0  0  0  0  0  0  0  0
    7.3995    3.0336   -0.0000 C   0  0  0  0  0  0  0  0  0  0  0  0
    6.0877    5.2883   -0.0000 C   0  0  0  0  0  0  0  0  0  0  0  0
    3.5460   -3.8740   -0.0000 C   0  0  0  0  0  0  0  0  0  0  0  0
    7.3790    4.5504   -0.0000 C   0  0  0  0  0  0  0  0  0  0  0  0
    9.9821    3.0336   -0.0000 C   0  0  0  0  0  0  0  0  0  0  0  0
    2.1932   -4.6324   -0.0000 C   0  0  0  0  0  0  0  0  0  0  0  0
    8.6498    5.3498   -0.0000 C   0  0  0  0  0  0  0  0  0  0  0  0
    7.3585    5.8212   -0.0000 C   0  0  0  0  0  0  0  0  0  0  0  0
    9.9616    4.5914   -0.0000 C   0  0  0  0  0  0  0  0  0  0  0  0
    2.1727   -5.8622   -0.0000 C   0  0  0  0  0  0  0  0  0  0  0  0
    8.6293    6.6206   -0.0000 O   0  0  0  0  0  0  0  0  0  0  0  0
  1  2  2  0  0  0  0
  2  3  1  0  0  0  0
  2  4  1  0  0  0  0
  3  5  2  0  0  0  0
  4  6  1  0  0  0  0
  5  7  1  0  0  0  0
  5  8  1  0  0  0  0
  7  9  1  0  0  0  0
  7 10  1  6  0  0  0
  8 11  1  0  0  0  0
  8 12  1  1  0  0  0
  9 13  1  0  0  0  0
  9 14  1  6  0  0  0
 12 15  1  0  0  0  0
 13 16  1  0  0  0  0
 14 17  1  0  0  0  0
 15 18  1  0  0  0  0
 16 19  1  0  0  0  0
 16 20  1  6  0  0  0
 18 21  1  0  0  0  0
 19 22  1  0  0  0  0
 19 23  1  6  0  0  0
 20 24  1  0  0  0  0
 21 25  1  0  0  0  0
 22 26  2  0  0  0  0
  6  7  1  0  0  0  0
 13 11  1  1  0  0  0
 17 19  1  0  0  0  0
 22 24  1  0  0  0  0
M  END
>  <MolRegNo>
2057841

>  <m>
=

>  <Value>
9.3

>  <Unit>
nM

>  <Type>
Ki

>  <pValue>
8.03

>  <Ligand Efficiency>
0.42

>  <Binding Efficiency>
22.53

>  <Surface Efficiency>
23.53

>  <Assay Index>
985353

>  <Assay Category>


>  <Assay Organism>
Homo sapiens

>  <Target ID>
65

>  <Target Name>
Cytochrome P450 19A1

>  <Target Organism>
Homo sapiens

>  <Target Description>
Target is a single protein chain

>  <Sequence Accession>
P11511

>  <Reference>


>  <Pubmed ID>
26469743

>  <DOI>
10.1016/j.ejmech.2015.09.038

$$$$
2057842
Actelion Java MolfileCreator 1.0

 27 30  0  0  0  0  0  0  0  0999 V2000
    0.0000   -0.0000   -0.0000 O   0  0  0  0  0  0  0  0  0  0  0  0
    1.0645    0.6346   -0.0000 C   0  0  0  0  0  0  0  0  0  0  0  0
    2.3338   -0.1024   -0.0000 C   0  0  0  0  0  0  0  0  0  0  0  0
    1.0441    2.1495   -0.0000 C   0  0  0  0  0  0  0  0  0  0  0  0
    3.6030    0.6960   -0.0000 C   0  0  0  0  0  0  0  0  0  0  0  0
    2.2928    2.9070   -0.0000 C   0  0  0  0  0  0  0  0  0  0  0  0
    3.5826    2.2110   -0.0000 C   0  0  0  0  0  0  0  0  0  0  0  0
    4.8928   -0.0409   -0.0000 C   0  0  0  0  0  0  0  0  0  0  0  0
    4.8518    2.9684   -0.0000 C   0  0  0  0  0  0  0  0  0  0  0  0
    3.5416    3.4802   -0.0000 C   0  0  0  0  0  0  0  0  0  0  0  0
    6.1620    0.7575   -0.0000 C   0  0  0  0  0  0  0  0  0  0  0  0
    4.8928   -1.5763   -0.0000 C   0  0  0  0  0  0  0  0  0  0  0  0
    6.1211    2.2724   -0.0000 C   0  0  0  0  0  0  0  0  0  0  0  0
    4.8109    4.5038   -0.0000 C   0  0  0  0  0  0  0  0  0  0  0  0
    3.5416   -2.3338   -0.0000 C   0  0  0  0  0  0  0  0  0  0  0  0
    7.3903    3.0298   -0.0000 C   0  0  0  0  0  0  0  0  0  0  0  0
    6.0801    5.2817   -0.0000 C   0  0  0  0  0  0  0  0  0  0  0  0
    3.5416   -3.8692   -0.0000 C   0  0  0  0  0  0  0  0  0  0  0  0
    7.3699    4.5448   -0.0000 C   0  0  0  0  0  0  0  0  0  0  0  0
    9.9698    3.0298   -0.0000 C   0  0  0  0  0  0  0  0  0  0  0  0
    2.1905   -4.6266   -0.0000 C   0  0  0  0  0  0  0  0  0  0  0  0
    8.6391    5.3432   -0.0000 C   0  0  0  0  0  0  0  0  0  0  0  0
    7.3494    5.8140   -0.0000 C   0  0  0  0  0  0  0  0  0  0  0  0
    9.9493    4.5857   -0.0000 C   0  0  0  0  0  0  0  0  0  0  0  0
    2.1905   -6.1620   -0.0000 C   0  0  0  0  0  0  0  0  0  0  0  0
    8.6186    6.6124   -0.0000 O   0  0  0  0  0  0  0  0  0  0  0  0
    1.1055   -6.7762   -0.0000 C   0  0  0  0  0  0  0  0  0  0  0  0
  1  2  2  0  0  0  0
  2  3  1  0  0  0  0
  2  4  1  0  0  0  0
  3  5  2  0  0  0  0
  4  6  1  0  0  0  0
  5  7  1  0  0  0  0
  5  8  1  0  0  0  0
  7  9  1  0  0  0  0
  7 10  1  6  0  0  0
  8 11  1  0  0  0  0
  8 12  1  1  0  0  0
  9 13  1  0  0  0  0
  9 14  1  6  0  0  0
 12 15  1  0  0  0  0
 13 16  1  0  0  0  0
 14 17  1  0  0  0  0
 15 18  1  0  0  0  0
 16 19  1  0  0  0  0
 16 20  1  6  0  0  0
 18 21  1  0  0  0  0
 19 22  1  0  0  0  0
 19 23  1  6  0  0  0
 20 24  1  0  0  0  0
 21 25  1  0  0  0  0
 22 26  2  0  0  0  0
 25 27  1  0  0  0  0
  6  7  1  0  0  0  0
 13 11  1  1  0  0  0
 17 19  1  0  0  0  0
 22 24  1  0  0  0  0
M  END
>  <MolRegNo>
2057842

>  <m>
=

>  <Value>
9.3

>  <Unit>
nM

>  <Type>
Ki

>  <pValue>
8.03

>  <Ligand Efficiency>
0.41

>  <Binding Efficiency>
21.67

>  <Surface Efficiency>
23.53

>  <Assay Index>
985353

>  <Assay Category>


>  <Assay Organism>
Homo sapiens

>  <Target ID>
65

>  <Target Name>
Cytochrome P450 19A1

>  <Target Organism>
Homo sapiens

>  <Target Description>
Target is a single protein chain

>  <Sequence Accession>
P11511

>  <Reference>


>  <Pubmed ID>
26469743

>  <DOI>
10.1016/j.ejmech.2015.09.038

$$$$
2057843
Actelion Java MolfileCreator 1.0

 29 32  0  0  0  0  0  0  0  0999 V2000
    0.0000   -0.0000   -0.0000 O   0  0  0  0  0  0  0  0  0  0  0  0
    1.0627    0.6335   -0.0000 C   0  0  0  0  0  0  0  0  0  0  0  0
    2.3297   -0.1022   -0.0000 C   0  0  0  0  0  0  0  0  0  0  0  0
    1.0422    2.1458   -0.0000 C   0  0  0  0  0  0  0  0  0  0  0  0
    3.5967    0.6948   -0.0000 C   0  0  0  0  0  0  0  0  0  0  0  0
    2.2888    2.9019   -0.0000 C   0  0  0  0  0  0  0  0  0  0  0  0
    3.5763    2.2071   -0.0000 C   0  0  0  0  0  0  0  0  0  0  0  0
    4.8842   -0.0409   -0.0000 C   0  0  0  0  0  0  0  0  0  0  0  0
    4.8433    2.9632   -0.0000 C   0  0  0  0  0  0  0  0  0  0  0  0
    3.5354    3.4741   -0.0000 C   0  0  0  0  0  0  0  0  0  0  0  0
    6.1512    0.7561   -0.0000 C   0  0  0  0  0  0  0  0  0  0  0  0
    4.8842   -1.5736   -0.0000 C   0  0  0  0  0  0  0  0  0  0  0  0
    6.1103    2.2684   -0.0000 C   0  0  0  0  0  0  0  0  0  0  0  0
    4.8024    4.4959   -0.0000 C   0  0  0  0  0  0  0  0  0  0  0  0
    3.5354   -2.3297   -0.0000 C   0  0  0  0  0  0  0  0  0  0  0  0
    7.3774    3.0245   -0.0000 C   0  0  0  0  0  0  0  0  0  0  0  0
    6.0695    5.2725   -0.0000 C   0  0  0  0  0  0  0  0  0  0  0  0
    3.5354   -3.8624   -0.0000 C   0  0  0  0  0  0  0  0  0  0  0  0
    7.3569    4.5368   -0.0000 C   0  0  0  0  0  0  0  0  0  0  0  0
    9.9523    3.0245   -0.0000 C   0  0  0  0  0  0  0  0  0  0  0  0
    2.1866   -4.6185   -0.0000 C   0  0  0  0  0  0  0  0  0  0  0  0
    8.6240    5.3338   -0.0000 C   0  0  0  0  0  0  0  0  0  0  0  0
    7.3365    5.8038   -0.0000 C   0  0  0  0  0  0  0  0  0  0  0  0
    9.9319    4.5776   -0.0000 C   0  0  0  0  0  0  0  0  0  0  0  0
    2.1866   -6.1512   -0.0000 C   0  0  0  0  0  0  0  0  0  0  0  0
    8.6035    6.6008   -0.0000 O   0  0  0  0  0  0  0  0  0  0  0  0
    0.8379   -6.9073   -0.0000 C   0  0  0  0  0  0  0  0  0  0  0  0
    0.8379   -8.4400   -0.0000 C   0  0  0  0  0  0  0  0  0  0  0  0
   -0.2452   -9.0531   -0.0000 C   0  0  0  0  0  0  0  0  0  0  0  0
  1  2  2  0  0  0  0
  2  3  1  0  0  0  0
  2  4  1  0  0  0  0
  3  5  2  0  0  0  0
  4  6  1  0  0  0  0
  5  7  1  0  0  0  0
  5  8  1  0  0  0  0
  7  9  1  0  0  0  0
  7 10  1  6  0  0  0
  8 11  1  0  0  0  0
  8 12  1  1  0  0  0
  9 13  1  0  0  0  0
  9 14  1  6  0  0  0
 12 15  1  0  0  0  0
 13 16  1  0  0  0  0
 14 17  1  0  0  0  0
 15 18  1  0  0  0  0
 16 19  1  0  0  0  0
 16 20  1  6  0  0  0
 18 21  1  0  0  0  0
 19 22  1  0  0  0  0
 19 23  1  6  0  0  0
 20 24  1  0  0  0  0
 21 25  1  0  0  0  0
 22 26  2  0  0  0  0
 25 27  1  0  0  0  0
 27 28  1  0  0  0  0
 28 29  1  0  0  0  0
  6  7  1  0  0  0  0
 13 11  1  1  0  0  0
 17 19  1  0  0  0  0
 22 24  1  0  0  0  0
M  END
>  <MolRegNo>
2057843

>  <m>
=

>  <Value>
9.3

>  <Unit>
nM

>  <Type>
Ki

>  <pValue>
8.03

>  <Ligand Efficiency>
0.38

>  <Binding Efficiency>
20.15

>  <Surface Efficiency>
23.53

>  <Assay Index>
985353

>  <Assay Category>


>  <Assay Organism>
Homo sapiens

>  <Target ID>
65

>  <Target Name>
Cytochrome P450 19A1

>  <Target Organism>
Homo sapiens

>  <Target Description>
Target is a single protein chain

>  <Sequence Accession>
P11511

>  <Reference>


>  <Pubmed ID>
26469743

>  <DOI>
10.1016/j.ejmech.2015.09.038

$$$$
2057846
Actelion Java MolfileCreator 1.0

 21 24  0  0  0  0  0  0  0  0999 V2000
    0.0000   -0.0000   -0.0000 O   0  0  0  0  0  0  0  0  0  0  0  0
    0.0000   -1.2265   -0.0000 C   0  0  0  0  0  0  0  0  0  0  0  0
   -1.3107   -1.9841   -0.0000 C   0  0  0  0  0  0  0  0  0  0  0  0
    1.2866   -1.9720   -0.0000 C   0  0  0  0  0  0  0  0  0  0  0  0
   -1.3227   -3.4631   -0.0000 C   0  0  0  0  0  0  0  0  0  0  0  0
   -2.6093   -1.2145   -0.0000 C   0  0  0  0  0  0  0  0  0  0  0  0
   -1.3227   -0.7335   -0.0000 C   0  0  0  0  0  0  0  0  0  0  0  0
    1.2746   -3.4871   -0.0000 C   0  0  0  0  0  0  0  0  0  0  0  0
   -2.6214   -4.1845   -0.0000 C   0  0  0  0  0  0  0  0  0  0  0  0
   -3.9200   -1.9600   -0.0000 C   0  0  0  0  0  0  0  0  0  0  0  0
   -3.9200   -3.4510   -0.0000 C   0  0  0  0  0  0  0  0  0  0  0  0
   -2.6093   -5.6636   -0.0000 C   0  0  0  0  0  0  0  0  0  0  0  0
   -5.2187   -4.1725   -0.0000 C   0  0  0  0  0  0  0  0  0  0  0  0
   -3.9080   -6.4211   -0.0000 C   0  0  0  0  0  0  0  0  0  0  0  0
   -5.2307   -5.6515   -0.0000 C   0  0  0  0  0  0  0  0  0  0  0  0
   -6.5534   -3.4390   -0.0000 C   0  0  0  0  0  0  0  0  0  0  0  0
   -5.2427   -2.9220   -0.0000 C   0  0  0  0  0  0  0  0  0  0  0  0
   -3.9080   -7.6476   -0.0000 C   0  0  0  0  0  0  0  0  0  0  0  0
   -6.5414   -6.4091   -0.0000 C   0  0  0  0  0  0  0  0  0  0  0  0
   -7.8280   -4.1605   -0.0000 C   0  0  0  0  0  0  0  0  0  0  0  0
   -7.8400   -5.6395   -0.0000 C   0  0  0  0  0  0  0  0  0  0  0  0
  1  2  2  0  0  0  0
  2  3  1  0  0  0  0
  2  4  1  0  0  0  0
  3  5  1  0  0  0  0
  3  6  1  0  0  0  0
  3  7  1  6  0  0  0
  4  8  1  0  0  0  0
  5  9  1  0  0  0  0
  6 10  1  0  0  0  0
  9 11  1  0  0  0  0
  9 12  1  1  0  0  0
 11 13  1  0  0  0  0
 12 14  1  0  0  0  0
 13 15  1  0  0  0  0
 13 16  1  0  0  0  0
 13 17  1  6  0  0  0
 14 18  1  1  0  0  0
 15 19  2  0  0  0  0
 16 20  1  0  0  0  0
 19 21  1  0  0  0  0
  5  8  1  6  0  0  0
 11 10  1  6  0  0  0
 14 15  1  0  0  0  0
 20 21  1  0  0  0  0
M  END
>  <MolRegNo>
2057846

>  <m>
=

>  <Value>
3.1

>  <Unit>
nM

>  <Type>
Ki

>  <pValue>
8.51

>  <Ligand Efficiency>
0.55

>  <Binding Efficiency>
29.7

>  <Surface Efficiency>
49.85

>  <Assay Index>
985353

>  <Assay Category>


>  <Assay Organism>
Homo sapiens

>  <Target ID>
65

>  <Target Name>
Cytochrome P450 19A1

>  <Target Organism>
Homo sapiens

>  <Target Description>
Target is a single protein chain

>  <Sequence Accession>
P11511

>  <Reference>


>  <Pubmed ID>
26469743

>  <DOI>
10.1016/j.ejmech.2015.09.038

$$$$
2057921
Actelion Java MolfileCreator 1.0

 21 24  0  0  0  0  0  0  0  0999 V2000
    0.0000   -0.0000   -0.0000 O   0  0  0  0  0  0  0  0  0  0  0  0
    0.0000   -1.2265   -0.0000 C   0  0  0  0  0  0  0  0  0  0  0  0
   -1.3107   -1.9841   -0.0000 C   0  0  0  0  0  0  0  0  0  0  0  0
    1.2866   -1.9720   -0.0000 C   0  0  0  0  0  0  0  0  0  0  0  0
   -1.3227   -3.4631   -0.0000 C   0  0  0  0  0  0  0  0  0  0  0  0
   -2.6093   -1.2145   -0.0000 C   0  0  0  0  0  0  0  0  0  0  0  0
   -1.3227   -0.7335   -0.0000 C   0  0  0  0  0  0  0  0  0  0  0  0
    1.2746   -3.4871   -0.0000 C   0  0  0  0  0  0  0  0  0  0  0  0
   -2.6214   -4.1845   -0.0000 C   0  0  0  0  0  0  0  0  0  0  0  0
   -3.9200   -1.9600   -0.0000 C   0  0  0  0  0  0  0  0  0  0  0  0
   -3.9200   -3.4510   -0.0000 C   0  0  0  0  0  0  0  0  0  0  0  0
   -2.6093   -5.6636   -0.0000 C   0  0  0  0  0  0  0  0  0  0  0  0
   -5.2187   -4.1725   -0.0000 C   0  0  0  0  0  0  0  0  0  0  0  0
   -3.9080   -6.4211   -0.0000 C   0  0  0  0  0  0  0  0  0  0  0  0
   -5.2307   -5.6515   -0.0000 C   0  0  0  0  0  0  0  0  0  0  0  0
   -6.5534   -3.4390   -0.0000 C   0  0  0  0  0  0  0  0  0  0  0  0
   -5.2427   -2.9220   -0.0000 C   0  0  0  0  0  0  0  0  0  0  0  0
   -3.9080   -7.6476   -0.0000 C   0  0  0  0  0  0  0  0  0  0  0  0
   -6.5414   -6.4091   -0.0000 C   0  0  0  0  0  0  0  0  0  0  0  0
   -7.8280   -4.1605   -0.0000 C   0  0  0  0  0  0  0  0  0  0  0  0
   -7.8400   -5.6395   -0.0000 C   0  0  0  0  0  0  0  0  0  0  0  0
  1  2  2  0  0  0  0
  2  3  1  0  0  0  0
  2  4  1  0  0  0  0
  3  5  1  0  0  0  0
  3  6  1  0  0  0  0
  3  7  1  6  0  0  0
  4  8  1  0  0  0  0
  5  9  1  0  0  0  0
  6 10  1  0  0  0  0
  9 11  1  0  0  0  0
  9 12  1  1  0  0  0
 11 13  1  0  0  0  0
 12 14  1  0  0  0  0
 13 15  1  0  0  0  0
 13 16  1  0  0  0  0
 13 17  1  6  0  0  0
 14 18  1  6  0  0  0
 15 19  2  0  0  0  0
 16 20  1  0  0  0  0
 19 21  1  0  0  0  0
  5  8  1  6  0  0  0
 11 10  1  6  0  0  0
 14 15  1  0  0  0  0
 20 21  1  0  0  0  0
M  END
>  <MolRegNo>
2057921

>  <m>
=

>  <Value>
5.3

>  <Unit>
nM

>  <Type>
Ki

>  <pValue>
8.28

>  <Ligand Efficiency>
0.54

>  <Binding Efficiency>
28.89

>  <Surface Efficiency>
48.48

>  <Assay Index>
985353

>  <Assay Category>


>  <Assay Organism>
Homo sapiens

>  <Target ID>
65

>  <Target Name>
Cytochrome P450 19A1

>  <Target Organism>
Homo sapiens

>  <Target Description>
Target is a single protein chain

>  <Sequence Accession>
P11511

>  <Reference>


>  <Pubmed ID>
26469743

>  <DOI>
10.1016/j.ejmech.2015.09.038

$$$$
2057922
Actelion Java MolfileCreator 1.0

 24 27  0  0  0  0  0  0  0  0999 V2000
    0.0000   -0.0000   -0.0000 O   0  0  0  0  0  0  0  0  0  0  0  0
    0.0000   -1.2374   -0.0000 C   0  0  0  0  0  0  0  0  0  0  0  0
   -1.3232   -1.9970   -0.0000 C   0  0  0  0  0  0  0  0  0  0  0  0
    1.2987   -1.9848   -0.0000 C   0  0  0  0  0  0  0  0  0  0  0  0
   -1.3354   -3.4795   -0.0000 C   0  0  0  0  0  0  0  0  0  0  0  0
   -2.6218   -1.2252   -0.0000 C   0  0  0  0  0  0  0  0  0  0  0  0
   -1.3354   -0.7351   -0.0000 C   0  0  0  0  0  0  0  0  0  0  0  0
    1.2864   -3.5040   -0.0000 C   0  0  0  0  0  0  0  0  0  0  0  0
   -2.6341   -4.2023   -0.0000 C   0  0  0  0  0  0  0  0  0  0  0  0
   -3.9450   -1.9725   -0.0000 C   0  0  0  0  0  0  0  0  0  0  0  0
   -3.9328   -3.4672   -0.0000 C   0  0  0  0  0  0  0  0  0  0  0  0
   -2.6218   -5.6848   -0.0000 C   0  0  0  0  0  0  0  0  0  0  0  0
   -5.2314   -4.1901   -0.0000 C   0  0  0  0  0  0  0  0  0  0  0  0
   -3.9205   -6.4444   -0.0000 C   0  0  0  0  0  0  0  0  0  0  0  0
   -5.2437   -5.6725   -0.0000 C   0  0  0  0  0  0  0  0  0  0  0  0
   -6.5669   -3.4550   -0.0000 C   0  0  0  0  0  0  0  0  0  0  0  0
   -5.2560   -2.9281   -0.0000 C   0  0  0  0  0  0  0  0  0  0  0  0
   -3.9205   -7.9881   -0.0000 O   0  0  0  0  0  0  0  0  0  0  0  0
   -6.5669   -6.4321   -0.0000 C   0  0  0  0  0  0  0  0  0  0  0  0
   -7.8410   -4.1778   -0.0000 C   0  0  0  0  0  0  0  0  0  0  0  0
   -5.2682   -8.7599   -0.0000 C   0  0  0  0  0  0  0  0  0  0  0  0
   -7.8655   -5.6603   -0.0000 C   0  0  0  0  0  0  0  0  0  0  0  0
   -5.2682   -9.9973   -0.0000 O   0  0  0  0  0  0  0  0  0  0  0  0
   -6.3586   -8.1351   -0.0000 C   0  0  0  0  0  0  0  0  0  0  0  0
  1  2  2  0  0  0  0
  2  3  1  0  0  0  0
  2  4  1  0  0  0  0
  3  5  1  0  0  0  0
  3  6  1  0  0  0  0
  3  7  1  6  0  0  0
  4  8  1  0  0  0  0
  5  9  1  0  0  0  0
  6 10  1  0  0  0  0
  9 11  1  0  0  0  0
  9 12  1  1  0  0  0
 11 13  1  0  0  0  0
 12 14  1  0  0  0  0
 13 15  1  0  0  0  0
 13 16  1  0  0  0  0
 13 17  1  6  0  0  0
 14 18  1  6  0  0  0
 15 19  2  0  0  0  0
 16 20  1  0  0  0  0
 18 21  1  0  0  0  0
 19 22  1  0  0  0  0
 21 23  2  0  0  0  0
 21 24  1  0  0  0  0
  5  8  1  6  0  0  0
 11 10  1  6  0  0  0
 14 15  1  0  0  0  0
 20 22  1  0  0  0  0
M  END
>  <MolRegNo>
2057922

>  <m>
=

>  <Value>
12

>  <Unit>
nM

>  <Type>
Ki

>  <pValue>
7.92

>  <Ligand Efficiency>
0.45

>  <Binding Efficiency>
23.97

>  <Surface Efficiency>
18.26

>  <Assay Index>
985353

>  <Assay Category>


>  <Assay Organism>
Homo sapiens

>  <Target ID>
65

>  <Target Name>
Cytochrome P450 19A1

>  <Target Organism>
Homo sapiens

>  <Target Description>
Target is a single protein chain

>  <Sequence Accession>
P11511

>  <Reference>


>  <Pubmed ID>
26469743

>  <DOI>
10.1016/j.ejmech.2015.09.038

$$$$
2057923
Actelion Java MolfileCreator 1.0

 22 25  0  0  0  0  0  0  0  0999 V2000
    0.0000   -0.0000   -0.0000 O   0  0  0  0  0  0  0  0  0  0  0  0
    0.0000   -1.2309   -0.0000 C   0  0  0  0  0  0  0  0  0  0  0  0
   -1.3162   -1.9865   -0.0000 C   0  0  0  0  0  0  0  0  0  0  0  0
    1.2918   -1.9743   -0.0000 C   0  0  0  0  0  0  0  0  0  0  0  0
   -1.3284   -3.4611   -0.0000 C   0  0  0  0  0  0  0  0  0  0  0  0
   -2.6080   -1.2187   -0.0000 C   0  0  0  0  0  0  0  0  0  0  0  0
   -1.3284   -0.7312   -0.0000 C   0  0  0  0  0  0  0  0  0  0  0  0
    1.2796   -3.4855   -0.0000 C   0  0  0  0  0  0  0  0  0  0  0  0
   -2.6202   -4.1801   -0.0000 C   0  0  0  0  0  0  0  0  0  0  0  0
   -3.9242   -1.9621   -0.0000 C   0  0  0  0  0  0  0  0  0  0  0  0
   -3.9120   -3.4489   -0.0000 C   0  0  0  0  0  0  0  0  0  0  0  0
   -2.6080   -5.6548   -0.0000 C   0  0  0  0  0  0  0  0  0  0  0  0
   -5.2038   -4.1680   -0.0000 C   0  0  0  0  0  0  0  0  0  0  0  0
   -3.8998   -6.4104   -0.0000 C   0  0  0  0  0  0  0  0  0  0  0  0
   -5.2160   -5.6426   -0.0000 C   0  0  0  0  0  0  0  0  0  0  0  0
   -6.5322   -3.4367   -0.0000 C   0  0  0  0  0  0  0  0  0  0  0  0
   -5.2282   -2.9127   -0.0000 C   0  0  0  0  0  0  0  0  0  0  0  0
   -3.8998   -7.9459   -0.0000 O   0  0  0  0  0  0  0  0  0  0  0  0
   -6.5322   -6.3982   -0.0000 C   0  0  0  0  0  0  0  0  0  0  0  0
   -7.7997   -4.1558   -0.0000 C   0  0  0  0  0  0  0  0  0  0  0  0
   -4.9723   -8.5675   -0.0000 C   0  0  0  0  0  0  0  0  0  0  0  0
   -7.8240   -5.6304   -0.0000 C   0  0  0  0  0  0  0  0  0  0  0  0
  1  2  2  0  0  0  0
  2  3  1  0  0  0  0
  2  4  1  0  0  0  0
  3  5  1  0  0  0  0
  3  6  1  0  0  0  0
  3  7  1  6  0  0  0
  4  8  1  0  0  0  0
  5  9  1  0  0  0  0
  6 10  1  0  0  0  0
  9 11  1  0  0  0  0
  9 12  1  1  0  0  0
 11 13  1  0  0  0  0
 12 14  1  0  0  0  0
 13 15  1  0  0  0  0
 13 16  1  0  0  0  0
 13 17  1  6  0  0  0
 14 18  1  6  0  0  0
 15 19  2  0  0  0  0
 16 20  1  0  0  0  0
 18 21  1  0  0  0  0
 19 22  1  0  0  0  0
  5  8  1  6  0  0  0
 11 10  1  6  0  0  0
 14 15  1  0  0  0  0
 20 22  1  0  0  0  0
M  END
>  <MolRegNo>
2057923

>  <m>
=

>  <Value>
12

>  <Unit>
nM

>  <Type>
Ki

>  <pValue>
7.92

>  <Ligand Efficiency>
0.49

>  <Binding Efficiency>
26.19

>  <Surface Efficiency>
30.12

>  <Assay Index>
985353

>  <Assay Category>


>  <Assay Organism>
Homo sapiens

>  <Target ID>
65

>  <Target Name>
Cytochrome P450 19A1

>  <Target Organism>
Homo sapiens

>  <Target Description>
Target is a single protein chain

>  <Sequence Accession>
P11511

>  <Reference>


>  <Pubmed ID>
26469743

>  <DOI>
10.1016/j.ejmech.2015.09.038

$$$$
2057924
Actelion Java MolfileCreator 1.0

 22 25  0  0  0  0  0  0  0  0999 V2000
    0.0000   -0.0000   -0.0000 O   0  0  0  0  0  0  0  0  0  0  0  0
    0.0000   -1.2309   -0.0000 C   0  0  0  0  0  0  0  0  0  0  0  0
   -1.3162   -1.9865   -0.0000 C   0  0  0  0  0  0  0  0  0  0  0  0
    1.2918   -1.9743   -0.0000 C   0  0  0  0  0  0  0  0  0  0  0  0
   -1.3284   -3.4611   -0.0000 C   0  0  0  0  0  0  0  0  0  0  0  0
   -2.6080   -1.2187   -0.0000 C   0  0  0  0  0  0  0  0  0  0  0  0
   -1.3284   -0.7312   -0.0000 C   0  0  0  0  0  0  0  0  0  0  0  0
    1.2796   -3.4855   -0.0000 C   0  0  0  0  0  0  0  0  0  0  0  0
   -2.6202   -4.1801   -0.0000 C   0  0  0  0  0  0  0  0  0  0  0  0
   -3.9242   -1.9621   -0.0000 C   0  0  0  0  0  0  0  0  0  0  0  0
   -3.9120   -3.4489   -0.0000 C   0  0  0  0  0  0  0  0  0  0  0  0
   -2.6080   -5.6548   -0.0000 C   0  0  0  0  0  0  0  0  0  0  0  0
   -5.2038   -4.1680   -0.0000 C   0  0  0  0  0  0  0  0  0  0  0  0
   -3.8998   -6.4104   -0.0000 C   0  0  0  0  0  0  0  0  0  0  0  0
   -5.2160   -5.6426   -0.0000 C   0  0  0  0  0  0  0  0  0  0  0  0
   -6.5322   -3.4367   -0.0000 C   0  0  0  0  0  0  0  0  0  0  0  0
   -5.2282   -2.9127   -0.0000 C   0  0  0  0  0  0  0  0  0  0  0  0
   -3.8998   -7.9459   -0.0000 C   0  0  0  0  0  0  0  0  0  0  0  0
   -6.5322   -6.3982   -0.0000 C   0  0  0  0  0  0  0  0  0  0  0  0
   -7.7997   -4.1558   -0.0000 C   0  0  0  0  0  0  0  0  0  0  0  0
   -4.9723   -8.5675   -0.0000 C   0  0  0  0  0  0  0  0  0  0  0  0
   -7.8240   -5.6304   -0.0000 C   0  0  0  0  0  0  0  0  0  0  0  0
  1  2  2  0  0  0  0
  2  3  1  0  0  0  0
  2  4  1  0  0  0  0
  3  5  1  0  0  0  0
  3  6  1  0  0  0  0
  3  7  1  6  0  0  0
  4  8  1  0  0  0  0
  5  9  1  0  0  0  0
  6 10  1  0  0  0  0
  9 11  1  0  0  0  0
  9 12  1  1  0  0  0
 11 13  1  0  0  0  0
 12 14  1  0  0  0  0
 13 15  1  0  0  0  0
 13 16  1  0  0  0  0
 13 17  1  6  0  0  0
 14 18  1  1  0  0  0
 15 19  2  0  0  0  0
 16 20  1  0  0  0  0
 18 21  1  0  0  0  0
 19 22  1  0  0  0  0
  5  8  1  6  0  0  0
 11 10  1  6  0  0  0
 14 15  1  0  0  0  0
 20 22  1  0  0  0  0
M  END
>  <MolRegNo>
2057924

>  <m>
=

>  <Value>
12

>  <Unit>
nM

>  <Type>
Ki

>  <pValue>
7.92

>  <Ligand Efficiency>
0.49

>  <Binding Efficiency>
26.36

>  <Surface Efficiency>
46.4

>  <Assay Index>
985353

>  <Assay Category>


>  <Assay Organism>
Homo sapiens

>  <Target ID>
65

>  <Target Name>
Cytochrome P450 19A1

>  <Target Organism>
Homo sapiens

>  <Target Description>
Target is a single protein chain

>  <Sequence Accession>
P11511

>  <Reference>


>  <Pubmed ID>
26469743

>  <DOI>
10.1016/j.ejmech.2015.09.038

$$$$
2057925
Actelion Java MolfileCreator 1.0

 24 27  0  0  0  0  0  0  0  0999 V2000
    0.0000   -0.0000   -0.0000 O   0  0  0  0  0  0  0  0  0  0  0  0
    0.0000   -1.2374   -0.0000 C   0  0  0  0  0  0  0  0  0  0  0  0
   -1.3232   -1.9970   -0.0000 C   0  0  0  0  0  0  0  0  0  0  0  0
    1.2987   -1.9848   -0.0000 C   0  0  0  0  0  0  0  0  0  0  0  0
   -1.3354   -3.4795   -0.0000 C   0  0  0  0  0  0  0  0  0  0  0  0
   -2.6218   -1.2252   -0.0000 C   0  0  0  0  0  0  0  0  0  0  0  0
   -1.3354   -0.7351   -0.0000 C   0  0  0  0  0  0  0  0  0  0  0  0
    1.2864   -3.5040   -0.0000 C   0  0  0  0  0  0  0  0  0  0  0  0
   -2.6341   -4.2023   -0.0000 C   0  0  0  0  0  0  0  0  0  0  0  0
   -3.9450   -1.9725   -0.0000 C   0  0  0  0  0  0  0  0  0  0  0  0
   -3.9328   -3.4672   -0.0000 C   0  0  0  0  0  0  0  0  0  0  0  0
   -2.6218   -5.6848   -0.0000 C   0  0  0  0  0  0  0  0  0  0  0  0
   -5.2314   -4.1901   -0.0000 C   0  0  0  0  0  0  0  0  0  0  0  0
   -3.9205   -6.4444   -0.0000 C   0  0  0  0  0  0  0  0  0  0  0  0
   -5.2437   -5.6725   -0.0000 C   0  0  0  0  0  0  0  0  0  0  0  0
   -6.5669   -3.4550   -0.0000 C   0  0  0  0  0  0  0  0  0  0  0  0
   -5.2560   -2.9281   -0.0000 C   0  0  0  0  0  0  0  0  0  0  0  0
   -3.9205   -7.9881   -0.0000 O   0  0  0  0  0  0  0  0  0  0  0  0
   -6.5669   -6.4321   -0.0000 C   0  0  0  0  0  0  0  0  0  0  0  0
   -7.8410   -4.1778   -0.0000 C   0  0  0  0  0  0  0  0  0  0  0  0
   -5.2682   -8.7599   -0.0000 C   0  0  0  0  0  0  0  0  0  0  0  0
   -7.8655   -5.6603   -0.0000 C   0  0  0  0  0  0  0  0  0  0  0  0
   -5.2682   -9.9973   -0.0000 O   0  0  0  0  0  0  0  0  0  0  0  0
   -6.3586   -8.1351   -0.0000 C   0  0  0  0  0  0  0  0  0  0  0  0
  1  2  2  0  0  0  0
  2  3  1  0  0  0  0
  2  4  1  0  0  0  0
  3  5  1  0  0  0  0
  3  6  1  0  0  0  0
  3  7  1  6  0  0  0
  4  8  1  0  0  0  0
  5  9  1  0  0  0  0
  6 10  1  0  0  0  0
  9 11  1  0  0  0  0
  9 12  1  1  0  0  0
 11 13  1  0  0  0  0
 12 14  1  0  0  0  0
 13 15  1  0  0  0  0
 13 16  1  0  0  0  0
 13 17  1  6  0  0  0
 14 18  1  1  0  0  0
 15 19  2  0  0  0  0
 16 20  1  0  0  0  0
 18 21  1  0  0  0  0
 19 22  1  0  0  0  0
 21 23  2  0  0  0  0
 21 24  1  0  0  0  0
  5  8  1  6  0  0  0
 11 10  1  6  0  0  0
 14 15  1  0  0  0  0
 20 22  1  0  0  0  0
M  END
>  <MolRegNo>
2057925

>  <m>
=

>  <Value>
12

>  <Unit>
nM

>  <Type>
Ki

>  <pValue>
7.92

>  <Ligand Efficiency>
0.45

>  <Binding Efficiency>
23.97

>  <Surface Efficiency>
18.26

>  <Assay Index>
985353

>  <Assay Category>


>  <Assay Organism>
Homo sapiens

>  <Target ID>
65

>  <Target Name>
Cytochrome P450 19A1

>  <Target Organism>
Homo sapiens

>  <Target Description>
Target is a single protein chain

>  <Sequence Accession>
P11511

>  <Reference>


>  <Pubmed ID>
26469743

>  <DOI>
10.1016/j.ejmech.2015.09.038

$$$$
2057926
Actelion Java MolfileCreator 1.0

 22 25  0  0  0  0  0  0  0  0999 V2000
    0.0000   -0.0000   -0.0000 O   0  0  0  0  0  0  0  0  0  0  0  0
    0.0000   -1.2309   -0.0000 C   0  0  0  0  0  0  0  0  0  0  0  0
   -1.3162   -1.9865   -0.0000 C   0  0  0  0  0  0  0  0  0  0  0  0
    1.2918   -1.9743   -0.0000 C   0  0  0  0  0  0  0  0  0  0  0  0
   -1.3284   -3.4611   -0.0000 C   0  0  0  0  0  0  0  0  0  0  0  0
   -2.6080   -1.2187   -0.0000 C   0  0  0  0  0  0  0  0  0  0  0  0
   -1.3284   -0.7312   -0.0000 C   0  0  0  0  0  0  0  0  0  0  0  0
    1.2796   -3.4855   -0.0000 C   0  0  0  0  0  0  0  0  0  0  0  0
   -2.6202   -4.1801   -0.0000 C   0  0  0  0  0  0  0  0  0  0  0  0
   -3.9242   -1.9621   -0.0000 C   0  0  0  0  0  0  0  0  0  0  0  0
   -3.9120   -3.4489   -0.0000 C   0  0  0  0  0  0  0  0  0  0  0  0
   -2.6080   -5.6548   -0.0000 C   0  0  0  0  0  0  0  0  0  0  0  0
   -5.2038   -4.1680   -0.0000 C   0  0  0  0  0  0  0  0  0  0  0  0
   -3.8998   -6.4104   -0.0000 C   0  0  0  0  0  0  0  0  0  0  0  0
   -5.2160   -5.6426   -0.0000 C   0  0  0  0  0  0  0  0  0  0  0  0
   -6.5322   -3.4367   -0.0000 C   0  0  0  0  0  0  0  0  0  0  0  0
   -5.2282   -2.9127   -0.0000 C   0  0  0  0  0  0  0  0  0  0  0  0
   -3.8998   -7.9459   -0.0000 O   0  0  0  0  0  0  0  0  0  0  0  0
   -6.5322   -6.3982   -0.0000 C   0  0  0  0  0  0  0  0  0  0  0  0
   -7.7997   -4.1558   -0.0000 C   0  0  0  0  0  0  0  0  0  0  0  0
   -4.9723   -8.5675   -0.0000 C   0  0  0  0  0  0  0  0  0  0  0  0
   -7.8240   -5.6304   -0.0000 C   0  0  0  0  0  0  0  0  0  0  0  0
  1  2  2  0  0  0  0
  2  3  1  0  0  0  0
  2  4  1  0  0  0  0
  3  5  1  0  0  0  0
  3  6  1  0  0  0  0
  3  7  1  6  0  0  0
  4  8  1  0  0  0  0
  5  9  1  0  0  0  0
  6 10  1  0  0  0  0
  9 11  1  0  0  0  0
  9 12  1  1  0  0  0
 11 13  1  0  0  0  0
 12 14  1  0  0  0  0
 13 15  1  0  0  0  0
 13 16  1  0  0  0  0
 13 17  1  6  0  0  0
 14 18  1  1  0  0  0
 15 19  2  0  0  0  0
 16 20  1  0  0  0  0
 18 21  1  0  0  0  0
 19 22  1  0  0  0  0
  5  8  1  6  0  0  0
 11 10  1  6  0  0  0
 14 15  1  0  0  0  0
 20 22  1  0  0  0  0
M  END
>  <MolRegNo>
2057926

>  <m>
=

>  <Value>
12

>  <Unit>
nM

>  <Type>
Ki

>  <pValue>
7.92

>  <Ligand Efficiency>
0.49

>  <Binding Efficiency>
26.19

>  <Surface Efficiency>
30.12

>  <Assay Index>
985353

>  <Assay Category>


>  <Assay Organism>
Homo sapiens

>  <Target ID>
65

>  <Target Name>
Cytochrome P450 19A1

>  <Target Organism>
Homo sapiens

>  <Target Description>
Target is a single protein chain

>  <Sequence Accession>
P11511

>  <Reference>


>  <Pubmed ID>
26469743

>  <DOI>
10.1016/j.ejmech.2015.09.038

$$$$
2057927
Actelion Java MolfileCreator 1.0

 22 25  0  0  0  0  0  0  0  0999 V2000
    0.0000   -0.0000   -0.0000 O   0  0  0  0  0  0  0  0  0  0  0  0
    1.0709    0.6384   -0.0000 C   0  0  0  0  0  0  0  0  0  0  0  0
    2.3477   -0.1030   -0.0000 C   0  0  0  0  0  0  0  0  0  0  0  0
    1.0503    2.1624   -0.0000 C   0  0  0  0  0  0  0  0  0  0  0  0
    3.6246    0.7002   -0.0000 C   0  0  0  0  0  0  0  0  0  0  0  0
    2.3065    2.9244   -0.0000 C   0  0  0  0  0  0  0  0  0  0  0  0
    4.9220   -0.0412   -0.0000 C   0  0  0  0  0  0  0  0  0  0  0  0
    3.6040    2.2242   -0.0000 C   0  0  0  0  0  0  0  0  0  0  0  0
    6.1988    0.7620   -0.0000 C   0  0  0  0  0  0  0  0  0  0  0  0
    4.9220   -1.2768   -0.0000 C   0  0  0  0  0  0  0  0  0  0  0  0
    4.8808    2.9861   -0.0000 C   0  0  0  0  0  0  0  0  0  0  0  0
    3.5628    3.5010   -0.0000 C   0  0  0  0  0  0  0  0  0  0  0  0
    6.1576    2.2859   -0.0000 C   0  0  0  0  0  0  0  0  0  0  0  0
    4.8396    4.5307   -0.0000 C   0  0  0  0  0  0  0  0  0  0  0  0
    7.4345    3.0479   -0.0000 C   0  0  0  0  0  0  0  0  0  0  0  0
    6.1164    5.3133   -0.0000 C   0  0  0  0  0  0  0  0  0  0  0  0
    7.4139    4.5719   -0.0000 C   0  0  0  0  0  0  0  0  0  0  0  0
   10.0293    3.0479   -0.0000 C   0  0  0  0  0  0  0  0  0  0  0  0
    8.6907    5.3751   -0.0000 C   0  0  0  0  0  0  0  0  0  0  0  0
    7.3933    5.8487   -0.0000 C   0  0  0  0  0  0  0  0  0  0  0  0
   10.0087    4.6131   -0.0000 C   0  0  0  0  0  0  0  0  0  0  0  0
    8.6701    6.6519   -0.0000 O   0  0  0  0  0  0  0  0  0  0  0  0
  1  2  2  0  0  0  0
  2  3  1  0  0  0  0
  2  4  1  0  0  0  0
  3  5  2  0  0  0  0
  4  6  1  0  0  0  0
  5  7  1  0  0  0  0
  5  8  1  0  0  0  0
  7  9  2  0  0  0  0
  7 10  1  0  0  0  0
  8 11  1  0  0  0  0
  8 12  1  6  0  0  0
 13  9  1  1  0  0  0
 11 14  1  6  0  0  0
 13 15  1  0  0  0  0
 14 16  1  0  0  0  0
 15 17  1  0  0  0  0
 15 18  1  6  0  0  0
 17 19  1  0  0  0  0
 17 20  1  6  0  0  0
 18 21  1  0  0  0  0
 19 22  2  0  0  0  0
  6  8  1  0  0  0  0
 11 13  1  0  0  0  0
 16 17  1  0  0  0  0
 19 21  1  0  0  0  0
M  END
>  <MolRegNo>
2057927

>  <m>
=

>  <Value>
17

>  <Unit>
nM

>  <Type>
Ki

>  <pValue>
7.77

>  <Ligand Efficiency>
0.48

>  <Binding Efficiency>
26.03

>  <Surface Efficiency>
22.76

>  <Assay Index>
985353

>  <Assay Category>


>  <Assay Organism>
Homo sapiens

>  <Target ID>
65

>  <Target Name>
Cytochrome P450 19A1

>  <Target Organism>
Homo sapiens

>  <Target Description>
Target is a single protein chain

>  <Sequence Accession>
P11511

>  <Reference>


>  <Pubmed ID>
26469743

>  <DOI>
10.1016/j.ejmech.2015.09.038

$$$$
2057928
Actelion Java MolfileCreator 1.0

 23 26  0  0  0  0  0  0  0  0999 V2000
    0.0000   -0.0000   -0.0000 O   0  0  0  0  0  0  0  0  0  0  0  0
    1.0699    0.6378   -0.0000 C   0  0  0  0  0  0  0  0  0  0  0  0
    2.3456   -0.1029   -0.0000 C   0  0  0  0  0  0  0  0  0  0  0  0
    1.0494    2.1604   -0.0000 C   0  0  0  0  0  0  0  0  0  0  0  0
    3.6213    0.6996   -0.0000 C   0  0  0  0  0  0  0  0  0  0  0  0
    2.3045    2.9217   -0.0000 C   0  0  0  0  0  0  0  0  0  0  0  0
    4.9176   -0.0412   -0.0000 C   0  0  0  0  0  0  0  0  0  0  0  0
    3.6007    2.2222   -0.0000 C   0  0  0  0  0  0  0  0  0  0  0  0
    6.1932    0.7613   -0.0000 C   0  0  0  0  0  0  0  0  0  0  0  0
    4.9176   -1.5843   -0.0000 C   0  0  0  0  0  0  0  0  0  0  0  0
    4.8764    2.9835   -0.0000 C   0  0  0  0  0  0  0  0  0  0  0  0
    3.5596    3.4978   -0.0000 C   0  0  0  0  0  0  0  0  0  0  0  0
    6.1521    2.2839   -0.0000 C   0  0  0  0  0  0  0  0  0  0  0  0
    5.9875   -2.1810   -0.0000 C   0  0  0  0  0  0  0  0  0  0  0  0
    4.8353    4.5266   -0.0000 C   0  0  0  0  0  0  0  0  0  0  0  0
    7.4278    3.0452   -0.0000 C   0  0  0  0  0  0  0  0  0  0  0  0
    6.1109    5.3085   -0.0000 C   0  0  0  0  0  0  0  0  0  0  0  0
    7.4072    4.5678   -0.0000 C   0  0  0  0  0  0  0  0  0  0  0  0
   10.0203    3.0452   -0.0000 C   0  0  0  0  0  0  0  0  0  0  0  0
    8.6829    5.3702   -0.0000 C   0  0  0  0  0  0  0  0  0  0  0  0
    7.3866    5.8435   -0.0000 C   0  0  0  0  0  0  0  0  0  0  0  0
    9.9997    4.6089   -0.0000 C   0  0  0  0  0  0  0  0  0  0  0  0
    8.6623    6.6459   -0.0000 O   0  0  0  0  0  0  0  0  0  0  0  0
  1  2  2  0  0  0  0
  2  3  1  0  0  0  0
  2  4  1  0  0  0  0
  3  5  2  0  0  0  0
  4  6  1  0  0  0  0
  5  7  1  0  0  0  0
  5  8  1  0  0  0  0
  7  9  2  0  0  0  0
  7 10  1  0  0  0  0
  8 11  1  0  0  0  0
  8 12  1  6  0  0  0
 13  9  1  1  0  0  0
 10 14  1  0  0  0  0
 11 15  1  6  0  0  0
 13 16  1  0  0  0  0
 15 17  1  0  0  0  0
 16 18  1  0  0  0  0
 16 19  1  6  0  0  0
 18 20  1  0  0  0  0
 18 21  1  6  0  0  0
 19 22  1  0  0  0  0
 20 23  2  0  0  0  0
  6  8  1  0  0  0  0
 11 13  1  0  0  0  0
 17 18  1  0  0  0  0
 20 22  1  0  0  0  0
M  END
>  <MolRegNo>
2057928

>  <m>
=

>  <Value>
17

>  <Unit>
nM

>  <Type>
Ki

>  <pValue>
7.77

>  <Ligand Efficiency>
0.46

>  <Binding Efficiency>
24.87

>  <Surface Efficiency>
22.76

>  <Assay Index>
985353

>  <Assay Category>


>  <Assay Organism>
Homo sapiens

>  <Target ID>
65

>  <Target Name>
Cytochrome P450 19A1

>  <Target Organism>
Homo sapiens

>  <Target Description>
Target is a single protein chain

>  <Sequence Accession>
P11511

>  <Reference>


>  <Pubmed ID>
26469743

>  <DOI>
10.1016/j.ejmech.2015.09.038

$$$$
2057929
Actelion Java MolfileCreator 1.0

 24 27  0  0  0  0  0  0  0  0999 V2000
    0.0000   -0.0000   -0.0000 O   0  0  0  0  0  0  0  0  0  0  0  0
    1.0689    0.6372   -0.0000 C   0  0  0  0  0  0  0  0  0  0  0  0
    2.3434   -0.1028   -0.0000 C   0  0  0  0  0  0  0  0  0  0  0  0
    1.0484    2.1584   -0.0000 C   0  0  0  0  0  0  0  0  0  0  0  0
    3.6179    0.6989   -0.0000 C   0  0  0  0  0  0  0  0  0  0  0  0
    2.3023    2.9190   -0.0000 C   0  0  0  0  0  0  0  0  0  0  0  0
    4.9129   -0.0411   -0.0000 C   0  0  0  0  0  0  0  0  0  0  0  0
    3.5973    2.2201   -0.0000 C   0  0  0  0  0  0  0  0  0  0  0  0
    6.1874    0.7606   -0.0000 C   0  0  0  0  0  0  0  0  0  0  0  0
    4.9129   -1.5828   -0.0000 C   0  0  0  0  0  0  0  0  0  0  0  0
    4.8718    2.9806   -0.0000 C   0  0  0  0  0  0  0  0  0  0  0  0
    3.5562    3.4945   -0.0000 C   0  0  0  0  0  0  0  0  0  0  0  0
    6.1463    2.2817   -0.0000 C   0  0  0  0  0  0  0  0  0  0  0  0
    6.2491   -2.3228   -0.0000 C   0  0  0  0  0  0  0  0  0  0  0  0
    4.8307    4.5223   -0.0000 C   0  0  0  0  0  0  0  0  0  0  0  0
    7.4208    3.0423   -0.0000 C   0  0  0  0  0  0  0  0  0  0  0  0
    6.2491   -3.5562   -0.0000 C   0  0  0  0  0  0  0  0  0  0  0  0
    6.1052    5.3035   -0.0000 C   0  0  0  0  0  0  0  0  0  0  0  0
    7.4002    4.5635   -0.0000 C   0  0  0  0  0  0  0  0  0  0  0  0
   10.0108    3.0423   -0.0000 C   0  0  0  0  0  0  0  0  0  0  0  0
    8.6747    5.3652   -0.0000 C   0  0  0  0  0  0  0  0  0  0  0  0
    7.3797    5.8379   -0.0000 C   0  0  0  0  0  0  0  0  0  0  0  0
    9.9903    4.6046   -0.0000 C   0  0  0  0  0  0  0  0  0  0  0  0
    8.6541    6.6396   -0.0000 O   0  0  0  0  0  0  0  0  0  0  0  0
  1  2  2  0  0  0  0
  2  3  1  0  0  0  0
  2  4  1  0  0  0  0
  3  5  2  0  0  0  0
  4  6  1  0  0  0  0
  5  7  1  0  0  0  0
  5  8  1  0  0  0  0
  7  9  2  0  0  0  0
  7 10  1  0  0  0  0
  8 11  1  0  0  0  0
  8 12  1  6  0  0  0
 13  9  1  1  0  0  0
 10 14  1  0  0  0  0
 11 15  1  6  0  0  0
 13 16  1  0  0  0  0
 14 17  1  0  0  0  0
 15 18  1  0  0  0  0
 16 19  1  0  0  0  0
 16 20  1  6  0  0  0
 19 21  1  0  0  0  0
 19 22  1  6  0  0  0
 20 23  1  0  0  0  0
 21 24  2  0  0  0  0
  6  8  1  0  0  0  0
 11 13  1  0  0  0  0
 18 19  1  0  0  0  0
 21 23  1  0  0  0  0
M  END
>  <MolRegNo>
2057929

>  <m>
=

>  <Value>
17

>  <Unit>
nM

>  <Type>
Ki

>  <pValue>
7.77

>  <Ligand Efficiency>
0.44

>  <Binding Efficiency>
23.8

>  <Surface Efficiency>
22.76

>  <Assay Index>
985353

>  <Assay Category>


>  <Assay Organism>
Homo sapiens

>  <Target ID>
65

>  <Target Name>
Cytochrome P450 19A1

>  <Target Organism>
Homo sapiens

>  <Target Description>
Target is a single protein chain

>  <Sequence Accession>
P11511

>  <Reference>


>  <Pubmed ID>
26469743

>  <DOI>
10.1016/j.ejmech.2015.09.038

$$$$
2057930
Actelion Java MolfileCreator 1.0

 25 28  0  0  0  0  0  0  0  0999 V2000
    0.0000   -0.0000   -0.0000 O   0  0  0  0  0  0  0  0  0  0  0  0
    1.0681    0.6368   -0.0000 C   0  0  0  0  0  0  0  0  0  0  0  0
    2.3416   -0.1027   -0.0000 C   0  0  0  0  0  0  0  0  0  0  0  0
    1.0476    2.1567   -0.0000 C   0  0  0  0  0  0  0  0  0  0  0  0
    3.6151    0.6984   -0.0000 C   0  0  0  0  0  0  0  0  0  0  0  0
    2.3005    2.9167   -0.0000 C   0  0  0  0  0  0  0  0  0  0  0  0
    4.9091   -0.0411   -0.0000 C   0  0  0  0  0  0  0  0  0  0  0  0
    3.5946    2.2184   -0.0000 C   0  0  0  0  0  0  0  0  0  0  0  0
    6.1826    0.7600   -0.0000 C   0  0  0  0  0  0  0  0  0  0  0  0
    4.9091   -1.5816   -0.0000 C   0  0  0  0  0  0  0  0  0  0  0  0
    4.8681    2.9784   -0.0000 C   0  0  0  0  0  0  0  0  0  0  0  0
    3.5535    3.4919   -0.0000 C   0  0  0  0  0  0  0  0  0  0  0  0
    6.1416    2.2800   -0.0000 C   0  0  0  0  0  0  0  0  0  0  0  0
    6.2443   -2.3211   -0.0000 C   0  0  0  0  0  0  0  0  0  0  0  0
    4.8270    4.5189   -0.0000 C   0  0  0  0  0  0  0  0  0  0  0  0
    7.4151    3.0400   -0.0000 C   0  0  0  0  0  0  0  0  0  0  0  0
    6.2443   -3.8616   -0.0000 C   0  0  0  0  0  0  0  0  0  0  0  0
    6.1005    5.2994   -0.0000 C   0  0  0  0  0  0  0  0  0  0  0  0
    7.3945    4.5600   -0.0000 C   0  0  0  0  0  0  0  0  0  0  0  0
   10.0032    3.0400   -0.0000 C   0  0  0  0  0  0  0  0  0  0  0  0
    7.3124   -4.4573   -0.0000 C   0  0  0  0  0  0  0  0  0  0  0  0
    8.6680    5.3610   -0.0000 C   0  0  0  0  0  0  0  0  0  0  0  0
    7.3740    5.8335   -0.0000 C   0  0  0  0  0  0  0  0  0  0  0  0
    9.9826    4.6010   -0.0000 C   0  0  0  0  0  0  0  0  0  0  0  0
    8.6475    6.6345   -0.0000 O   0  0  0  0  0  0  0  0  0  0  0  0
  1  2  2  0  0  0  0
  2  3  1  0  0  0  0
  2  4  1  0  0  0  0
  3  5  2  0  0  0  0
  4  6  1  0  0  0  0
  5  7  1  0  0  0  0
  5  8  1  0  0  0  0
  7  9  2  0  0  0  0
  7 10  1  0  0  0  0
  8 11  1  0  0  0  0
  8 12  1  6  0  0  0
 13  9  1  1  0  0  0
 10 14  1  0  0  0  0
 11 15  1  6  0  0  0
 13 16  1  0  0  0  0
 14 17  1  0  0  0  0
 15 18  1  0  0  0  0
 16 19  1  0  0  0  0
 16 20  1  6  0  0  0
 17 21  1  0  0  0  0
 19 22  1  0  0  0  0
 19 23  1  6  0  0  0
 20 24  1  0  0  0  0
 22 25  2  0  0  0  0
  6  8  1  0  0  0  0
 11 13  1  0  0  0  0
 18 19  1  0  0  0  0
 22 24  1  0  0  0  0
M  END
>  <MolRegNo>
2057930

>  <m>
=

>  <Value>
17

>  <Unit>
nM

>  <Type>
Ki

>  <pValue>
7.77

>  <Ligand Efficiency>
0.42

>  <Binding Efficiency>
22.82

>  <Surface Efficiency>
22.76

>  <Assay Index>
985353

>  <Assay Category>


>  <Assay Organism>
Homo sapiens

>  <Target ID>
65

>  <Target Name>
Cytochrome P450 19A1

>  <Target Organism>
Homo sapiens

>  <Target Description>
Target is a single protein chain

>  <Sequence Accession>
P11511

>  <Reference>


>  <Pubmed ID>
26469743

>  <DOI>
10.1016/j.ejmech.2015.09.038

$$$$
2057931
Actelion Java MolfileCreator 1.0

 26 29  0  0  0  0  0  0  0  0999 V2000
    0.0000   -0.0000   -0.0000 O   0  0  0  0  0  0  0  0  0  0  0  0
    1.0672    0.6362   -0.0000 C   0  0  0  0  0  0  0  0  0  0  0  0
    2.3397   -0.1026   -0.0000 C   0  0  0  0  0  0  0  0  0  0  0  0
    1.0467    2.1550   -0.0000 C   0  0  0  0  0  0  0  0  0  0  0  0
    3.6121    0.6978   -0.0000 C   0  0  0  0  0  0  0  0  0  0  0  0
    2.2986    2.9143   -0.0000 C   0  0  0  0  0  0  0  0  0  0  0  0
    4.9051   -0.0410   -0.0000 C   0  0  0  0  0  0  0  0  0  0  0  0
    3.5916    2.2165   -0.0000 C   0  0  0  0  0  0  0  0  0  0  0  0
    6.1776    0.7594   -0.0000 C   0  0  0  0  0  0  0  0  0  0  0  0
    4.9051   -1.5803   -0.0000 C   0  0  0  0  0  0  0  0  0  0  0  0
    4.8641    2.9759   -0.0000 C   0  0  0  0  0  0  0  0  0  0  0  0
    3.5506    3.4890   -0.0000 C   0  0  0  0  0  0  0  0  0  0  0  0
    6.1365    2.2781   -0.0000 C   0  0  0  0  0  0  0  0  0  0  0  0
    6.2392   -2.3192   -0.0000 C   0  0  0  0  0  0  0  0  0  0  0  0
    4.8230    4.5152   -0.0000 C   0  0  0  0  0  0  0  0  0  0  0  0
    7.4090    3.0375   -0.0000 C   0  0  0  0  0  0  0  0  0  0  0  0
    6.2392   -3.8584   -0.0000 C   0  0  0  0  0  0  0  0  0  0  0  0
    6.0955    5.2951   -0.0000 C   0  0  0  0  0  0  0  0  0  0  0  0
    7.3885    4.5562   -0.0000 C   0  0  0  0  0  0  0  0  0  0  0  0
    9.9950    3.0375   -0.0000 C   0  0  0  0  0  0  0  0  0  0  0  0
    7.5732   -4.5973   -0.0000 C   0  0  0  0  0  0  0  0  0  0  0  0
    8.6609    5.3566   -0.0000 C   0  0  0  0  0  0  0  0  0  0  0  0
    7.3679    5.8287   -0.0000 C   0  0  0  0  0  0  0  0  0  0  0  0
    9.9744    4.5973   -0.0000 C   0  0  0  0  0  0  0  0  0  0  0  0
    7.5732   -5.8287   -0.0000 C   0  0  0  0  0  0  0  0  0  0  0  0
    8.6404    6.6291   -0.0000 O   0  0  0  0  0  0  0  0  0  0  0  0
  1  2  2  0  0  0  0
  2  3  1  0  0  0  0
  2  4  1  0  0  0  0
  3  5  2  0  0  0  0
  4  6  1  0  0  0  0
  5  7  1  0  0  0  0
  5  8  1  0  0  0  0
  7  9  2  0  0  0  0
  7 10  1  0  0  0  0
  8 11  1  0  0  0  0
  8 12  1  6  0  0  0
 13  9  1  1  0  0  0
 10 14  1  0  0  0  0
 11 15  1  6  0  0  0
 13 16  1  0  0  0  0
 14 17  1  0  0  0  0
 15 18  1  0  0  0  0
 16 19  1  0  0  0  0
 16 20  1  6  0  0  0
 17 21  1  0  0  0  0
 19 22  1  0  0  0  0
 19 23  1  6  0  0  0
 20 24  1  0  0  0  0
 21 25  1  0  0  0  0
 22 26  2  0  0  0  0
  6  8  1  0  0  0  0
 11 13  1  0  0  0  0
 18 19  1  0  0  0  0
 22 24  1  0  0  0  0
M  END
>  <MolRegNo>
2057931

>  <m>
=

>  <Value>
17

>  <Unit>
nM

>  <Type>
Ki

>  <pValue>
7.77

>  <Ligand Efficiency>
0.41

>  <Binding Efficiency>
21.92

>  <Surface Efficiency>
22.76

>  <Assay Index>
985353

>  <Assay Category>


>  <Assay Organism>
Homo sapiens

>  <Target ID>
65

>  <Target Name>
Cytochrome P450 19A1

>  <Target Organism>
Homo sapiens

>  <Target Description>
Target is a single protein chain

>  <Sequence Accession>
P11511

>  <Reference>


>  <Pubmed ID>
26469743

>  <DOI>
10.1016/j.ejmech.2015.09.038

$$$$
2057932
Actelion Java MolfileCreator 1.0

 27 30  0  0  0  0  0  0  0  0999 V2000
    0.0000   -0.0000   -0.0000 O   0  0  0  0  0  0  0  0  0  0  0  0
    1.0665    0.6358   -0.0000 C   0  0  0  0  0  0  0  0  0  0  0  0
    2.3381   -0.1025   -0.0000 C   0  0  0  0  0  0  0  0  0  0  0  0
    1.0460    2.1535   -0.0000 C   0  0  0  0  0  0  0  0  0  0  0  0
    3.6097    0.6973   -0.0000 C   0  0  0  0  0  0  0  0  0  0  0  0
    2.2971    2.9124   -0.0000 C   0  0  0  0  0  0  0  0  0  0  0  0
    4.9019   -0.0410   -0.0000 C   0  0  0  0  0  0  0  0  0  0  0  0
    3.5892    2.2151   -0.0000 C   0  0  0  0  0  0  0  0  0  0  0  0
    6.1735    0.7589   -0.0000 C   0  0  0  0  0  0  0  0  0  0  0  0
    4.9019   -1.5793   -0.0000 C   0  0  0  0  0  0  0  0  0  0  0  0
    4.8609    2.9739   -0.0000 C   0  0  0  0  0  0  0  0  0  0  0  0
    3.5482    3.4867   -0.0000 C   0  0  0  0  0  0  0  0  0  0  0  0
    6.1325    2.2766   -0.0000 C   0  0  0  0  0  0  0  0  0  0  0  0
    6.2350   -2.3176   -0.0000 C   0  0  0  0  0  0  0  0  0  0  0  0
    4.8198    4.5122   -0.0000 C   0  0  0  0  0  0  0  0  0  0  0  0
    7.4041    3.0355   -0.0000 C   0  0  0  0  0  0  0  0  0  0  0  0
    6.2350   -3.8559   -0.0000 C   0  0  0  0  0  0  0  0  0  0  0  0
    6.0915    5.2916   -0.0000 C   0  0  0  0  0  0  0  0  0  0  0  0
    7.3836    4.5532   -0.0000 C   0  0  0  0  0  0  0  0  0  0  0  0
    9.9883    3.0355   -0.0000 C   0  0  0  0  0  0  0  0  0  0  0  0
    7.5682   -4.5942   -0.0000 C   0  0  0  0  0  0  0  0  0  0  0  0
    8.6552    5.3531   -0.0000 C   0  0  0  0  0  0  0  0  0  0  0  0
    7.3631    5.8248   -0.0000 C   0  0  0  0  0  0  0  0  0  0  0  0
    9.9678    4.5942   -0.0000 C   0  0  0  0  0  0  0  0  0  0  0  0
    7.5682   -6.1325   -0.0000 C   0  0  0  0  0  0  0  0  0  0  0  0
    8.6347    6.6247   -0.0000 O   0  0  0  0  0  0  0  0  0  0  0  0
    8.6347   -6.7273   -0.0000 C   0  0  0  0  0  0  0  0  0  0  0  0
  1  2  2  0  0  0  0
  2  3  1  0  0  0  0
  2  4  1  0  0  0  0
  3  5  2  0  0  0  0
  4  6  1  0  0  0  0
  5  7  1  0  0  0  0
  5  8  1  0  0  0  0
  7  9  2  0  0  0  0
  7 10  1  0  0  0  0
  8 11  1  0  0  0  0
  8 12  1  6  0  0  0
 13  9  1  1  0  0  0
 10 14  1  0  0  0  0
 11 15  1  6  0  0  0
 13 16  1  0  0  0  0
 14 17  1  0  0  0  0
 15 18  1  0  0  0  0
 16 19  1  0  0  0  0
 16 20  1  6  0  0  0
 17 21  1  0  0  0  0
 19 22  1  0  0  0  0
 19 23  1  6  0  0  0
 20 24  1  0  0  0  0
 21 25  1  0  0  0  0
 22 26  2  0  0  0  0
 25 27  1  0  0  0  0
  6  8  1  0  0  0  0
 11 13  1  0  0  0  0
 18 19  1  0  0  0  0
 22 24  1  0  0  0  0
M  END
>  <MolRegNo>
2057932

>  <m>
=

>  <Value>
17

>  <Unit>
nM

>  <Type>
Ki

>  <pValue>
7.77

>  <Ligand Efficiency>
0.39

>  <Binding Efficiency>
21.08

>  <Surface Efficiency>
22.76

>  <Assay Index>
985353

>  <Assay Category>


>  <Assay Organism>
Homo sapiens

>  <Target ID>
65

>  <Target Name>
Cytochrome P450 19A1

>  <Target Organism>
Homo sapiens

>  <Target Description>
Target is a single protein chain

>  <Sequence Accession>
P11511

>  <Reference>


>  <Pubmed ID>
26469743

>  <DOI>
10.1016/j.ejmech.2015.09.038

$$$$
2057933
Actelion Java MolfileCreator 1.0

 28 31  0  0  0  0  0  0  0  0999 V2000
    0.0000   -0.0000   -0.0000 O   0  0  0  0  0  0  0  0  0  0  0  0
    1.0658    0.6354   -0.0000 C   0  0  0  0  0  0  0  0  0  0  0  0
    2.3365   -0.1025   -0.0000 C   0  0  0  0  0  0  0  0  0  0  0  0
    1.0453    2.1520   -0.0000 C   0  0  0  0  0  0  0  0  0  0  0  0
    3.6072    0.6968   -0.0000 C   0  0  0  0  0  0  0  0  0  0  0  0
    2.2955    2.9103   -0.0000 C   0  0  0  0  0  0  0  0  0  0  0  0
    4.8984   -0.0410   -0.0000 C   0  0  0  0  0  0  0  0  0  0  0  0
    3.5867    2.2135   -0.0000 C   0  0  0  0  0  0  0  0  0  0  0  0
    6.1691    0.7583   -0.0000 C   0  0  0  0  0  0  0  0  0  0  0  0
    4.8984   -1.5781   -0.0000 C   0  0  0  0  0  0  0  0  0  0  0  0
    4.8574    2.9718   -0.0000 C   0  0  0  0  0  0  0  0  0  0  0  0
    3.5457    3.4842   -0.0000 C   0  0  0  0  0  0  0  0  0  0  0  0
    6.1281    2.2750   -0.0000 C   0  0  0  0  0  0  0  0  0  0  0  0
    6.2305   -2.3160   -0.0000 C   0  0  0  0  0  0  0  0  0  0  0  0
    4.8164    4.5089   -0.0000 C   0  0  0  0  0  0  0  0  0  0  0  0
    7.3988    3.0333   -0.0000 C   0  0  0  0  0  0  0  0  0  0  0  0
    6.2305   -3.8531   -0.0000 C   0  0  0  0  0  0  0  0  0  0  0  0
    6.0871    5.2878   -0.0000 C   0  0  0  0  0  0  0  0  0  0  0  0
    7.3783    4.5499   -0.0000 C   0  0  0  0  0  0  0  0  0  0  0  0
    9.9812    3.0333   -0.0000 C   0  0  0  0  0  0  0  0  0  0  0  0
    7.5627   -4.5909   -0.0000 C   0  0  0  0  0  0  0  0  0  0  0  0
    8.6490    5.3493   -0.0000 C   0  0  0  0  0  0  0  0  0  0  0  0
    7.3578    5.8206   -0.0000 C   0  0  0  0  0  0  0  0  0  0  0  0
    9.9607    4.5909   -0.0000 C   0  0  0  0  0  0  0  0  0  0  0  0
    7.5627   -6.1281   -0.0000 C   0  0  0  0  0  0  0  0  0  0  0  0
    8.6285    6.6200   -0.0000 O   0  0  0  0  0  0  0  0  0  0  0  0
    8.8949   -6.8659   -0.0000 C   0  0  0  0  0  0  0  0  0  0  0  0
    8.8949   -8.0956   -0.0000 C   0  0  0  0  0  0  0  0  0  0  0  0
  1  2  2  0  0  0  0
  2  3  1  0  0  0  0
  2  4  1  0  0  0  0
  3  5  2  0  0  0  0
  4  6  1  0  0  0  0
  5  7  1  0  0  0  0
  5  8  1  0  0  0  0
  7  9  2  0  0  0  0
  7 10  1  0  0  0  0
  8 11  1  0  0  0  0
  8 12  1  6  0  0  0
 13  9  1  1  0  0  0
 10 14  1  0  0  0  0
 11 15  1  6  0  0  0
 13 16  1  0  0  0  0
 14 17  1  0  0  0  0
 15 18  1  0  0  0  0
 16 19  1  0  0  0  0
 16 20  1  6  0  0  0
 17 21  1  0  0  0  0
 19 22  1  0  0  0  0
 19 23  1  6  0  0  0
 20 24  1  0  0  0  0
 21 25  1  0  0  0  0
 22 26  2  0  0  0  0
 25 27  1  0  0  0  0
 27 28  1  0  0  0  0
  6  8  1  0  0  0  0
 11 13  1  0  0  0  0
 18 19  1  0  0  0  0
 22 24  1  0  0  0  0
M  END
>  <MolRegNo>
2057933

>  <m>
=

>  <Value>
17

>  <Unit>
nM

>  <Type>
Ki

>  <pValue>
7.77

>  <Ligand Efficiency>
0.38

>  <Binding Efficiency>
20.31

>  <Surface Efficiency>
22.76

>  <Assay Index>
985353

>  <Assay Category>


>  <Assay Organism>
Homo sapiens

>  <Target ID>
65

>  <Target Name>
Cytochrome P450 19A1

>  <Target Organism>
Homo sapiens

>  <Target Description>
Target is a single protein chain

>  <Sequence Accession>
P11511

>  <Reference>


>  <Pubmed ID>
26469743

>  <DOI>
10.1016/j.ejmech.2015.09.038

$$$$
2057934
Actelion Java MolfileCreator 1.0

 21 24  0  0  0  0  0  0  0  0999 V2000
    0.0000   -0.0000   -0.0000 O   0  0  0  0  0  0  0  0  0  0  0  0
    1.0631    0.6338   -0.0000 C   0  0  0  0  0  0  0  0  0  0  0  0
    2.3306   -0.1022   -0.0000 C   0  0  0  0  0  0  0  0  0  0  0  0
    1.0426    2.1466   -0.0000 C   0  0  0  0  0  0  0  0  0  0  0  0
    3.5981    0.6951   -0.0000 C   0  0  0  0  0  0  0  0  0  0  0  0
    2.2897    2.9030   -0.0000 C   0  0  0  0  0  0  0  0  0  0  0  0
    4.8861   -0.0409   -0.0000 C   0  0  0  0  0  0  0  0  0  0  0  0
    3.5777    2.2079   -0.0000 C   0  0  0  0  0  0  0  0  0  0  0  0
    6.1536    0.7564   -0.0000 C   0  0  0  0  0  0  0  0  0  0  0  0
    4.8452    2.9644   -0.0000 C   0  0  0  0  0  0  0  0  0  0  0  0
    3.5368    3.4755   -0.0000 C   0  0  0  0  0  0  0  0  0  0  0  0
    6.1127    2.2693   -0.0000 C   0  0  0  0  0  0  0  0  0  0  0  0
    4.8043    4.4977   -0.0000 C   0  0  0  0  0  0  0  0  0  0  0  0
    7.3803    3.0257   -0.0000 C   0  0  0  0  0  0  0  0  0  0  0  0
    6.0719    5.2745   -0.0000 C   0  0  0  0  0  0  0  0  0  0  0  0
    7.3598    4.5386   -0.0000 C   0  0  0  0  0  0  0  0  0  0  0  0
    9.9562    3.0257   -0.0000 C   0  0  0  0  0  0  0  0  0  0  0  0
    8.6273    5.3359   -0.0000 C   0  0  0  0  0  0  0  0  0  0  0  0
    7.3394    5.8061   -0.0000 C   0  0  0  0  0  0  0  0  0  0  0  0
    9.9358    4.5794   -0.0000 C   0  0  0  0  0  0  0  0  0  0  0  0
    8.6069    6.6034   -0.0000 O   0  0  0  0  0  0  0  0  0  0  0  0
  1  2  2  0  0  0  0
  2  3  1  0  0  0  0
  2  4  1  0  0  0  0
  3  5  2  0  0  0  0
  4  6  1  0  0  0  0
  5  7  1  0  0  0  0
  5  8  1  0  0  0  0
  7  9  2  0  0  0  0
  8 10  1  0  0  0  0
  8 11  1  6  0  0  0
 12  9  1  1  0  0  0
 10 13  1  6  0  0  0
 12 14  1  0  0  0  0
 13 15  1  0  0  0  0
 14 16  1  0  0  0  0
 14 17  1  6  0  0  0
 16 18  1  0  0  0  0
 16 19  1  6  0  0  0
 17 20  1  0  0  0  0
 18 21  2  0  0  0  0
  6  8  1  0  0  0  0
 10 12  1  0  0  0  0
 15 16  1  0  0  0  0
 18 20  1  0  0  0  0
M  END
>  <MolRegNo>
2057934

>  <m>
=

>  <Value>
17

>  <Unit>
nM

>  <Type>
Ki

>  <pValue>
7.77

>  <Ligand Efficiency>
0.51

>  <Binding Efficiency>
27.32

>  <Surface Efficiency>
22.76

>  <Assay Index>
985353

>  <Assay Category>


>  <Assay Organism>
Homo sapiens

>  <Target ID>
65

>  <Target Name>
Cytochrome P450 19A1

>  <Target Organism>
Homo sapiens

>  <Target Description>
Target is a single protein chain

>  <Sequence Accession>
P11511

>  <Reference>


>  <Pubmed ID>
26469743

>  <DOI>
10.1016/j.ejmech.2015.09.038

$$$$
2057935
Actelion Java MolfileCreator 1.0

 22 25  0  0  0  0  0  0  0  0999 V2000
    0.0000   -0.0000   -0.0000 O   0  0  0  0  0  0  0  0  0  0  0  0
    1.0709    0.6384   -0.0000 C   0  0  0  0  0  0  0  0  0  0  0  0
    2.3477   -0.1030   -0.0000 C   0  0  0  0  0  0  0  0  0  0  0  0
    1.0503    2.1624   -0.0000 C   0  0  0  0  0  0  0  0  0  0  0  0
    3.6246    0.7002   -0.0000 C   0  0  0  0  0  0  0  0  0  0  0  0
    2.3065    2.9244   -0.0000 C   0  0  0  0  0  0  0  0  0  0  0  0
    4.9220   -0.0412   -0.0000 C   0  0  0  0  0  0  0  0  0  0  0  0
    3.6040    2.2242   -0.0000 C   0  0  0  0  0  0  0  0  0  0  0  0
    6.1988    0.7620   -0.0000 C   0  0  0  0  0  0  0  0  0  0  0  0
    4.9220   -1.2768   -0.0000 C   0  0  0  0  0  0  0  0  0  0  0  0
    4.8808    2.9861   -0.0000 C   0  0  0  0  0  0  0  0  0  0  0  0
    3.5628    3.5010   -0.0000 C   0  0  0  0  0  0  0  0  0  0  0  0
    6.1576    2.2859   -0.0000 C   0  0  0  0  0  0  0  0  0  0  0  0
    4.8396    4.5307   -0.0000 C   0  0  0  0  0  0  0  0  0  0  0  0
    7.4345    3.0479   -0.0000 C   0  0  0  0  0  0  0  0  0  0  0  0
    6.1164    5.3133   -0.0000 C   0  0  0  0  0  0  0  0  0  0  0  0
    7.4139    4.5719   -0.0000 C   0  0  0  0  0  0  0  0  0  0  0  0
   10.0293    3.0479   -0.0000 C   0  0  0  0  0  0  0  0  0  0  0  0
    8.6907    5.3751   -0.0000 C   0  0  0  0  0  0  0  0  0  0  0  0
    7.3933    5.8487   -0.0000 C   0  0  0  0  0  0  0  0  0  0  0  0
   10.0087    4.6131   -0.0000 C   0  0  0  0  0  0  0  0  0  0  0  0
    8.6701    6.6519   -0.0000 O   0  0  0  0  0  0  0  0  0  0  0  0
  1  2  2  0  0  0  0
  2  3  1  0  0  0  0
  2  4  1  0  0  0  0
  3  5  2  0  0  0  0
  4  6  2  0  0  0  0
  5  7  1  0  0  0  0
  5  8  1  0  0  0  0
  7  9  2  0  0  0  0
  7 10  1  0  0  0  0
  8 11  1  0  0  0  0
  8 12  1  1  0  0  0
 13  9  1  6  0  0  0
 11 14  1  1  0  0  0
 13 15  1  0  0  0  0
 14 16  1  0  0  0  0
 15 17  1  0  0  0  0
 15 18  1  1  0  0  0
 17 19  1  0  0  0  0
 17 20  1  1  0  0  0
 18 21  1  0  0  0  0
 19 22  2  0  0  0  0
  6  8  1  0  0  0  0
 11 13  1  0  0  0  0
 16 17  1  0  0  0  0
 19 21  1  0  0  0  0
M  END
>  <MolRegNo>
2057935

>  <m>
=

>  <Value>
2.5

>  <Unit>
nM

>  <Type>
Ki

>  <pValue>
8.6

>  <Ligand Efficiency>
0.53

>  <Binding Efficiency>
29.02

>  <Surface Efficiency>
25.2

>  <Assay Index>
985353

>  <Assay Category>


>  <Assay Organism>
Homo sapiens

>  <Target ID>
65

>  <Target Name>
Cytochrome P450 19A1

>  <Target Organism>
Homo sapiens

>  <Target Description>
Target is a single protein chain

>  <Sequence Accession>
P11511

>  <Reference>


>  <Pubmed ID>
26469743

>  <DOI>
10.1016/j.ejmech.2015.09.038

$$$$
2057936
Actelion Java MolfileCreator 1.0

 23 26  0  0  0  0  0  0  0  0999 V2000
    0.0000   -0.0000   -0.0000 O   0  0  0  0  0  0  0  0  0  0  0  0
    1.0699    0.6378   -0.0000 C   0  0  0  0  0  0  0  0  0  0  0  0
    2.3456   -0.1029   -0.0000 C   0  0  0  0  0  0  0  0  0  0  0  0
    1.0494    2.1604   -0.0000 C   0  0  0  0  0  0  0  0  0  0  0  0
    3.6213    0.6996   -0.0000 C   0  0  0  0  0  0  0  0  0  0  0  0
    2.3045    2.9217   -0.0000 C   0  0  0  0  0  0  0  0  0  0  0  0
    4.9176   -0.0412   -0.0000 C   0  0  0  0  0  0  0  0  0  0  0  0
    3.6007    2.2222   -0.0000 C   0  0  0  0  0  0  0  0  0  0  0  0
    6.1932    0.7613   -0.0000 C   0  0  0  0  0  0  0  0  0  0  0  0
    4.9176   -1.5843   -0.0000 C   0  0  0  0  0  0  0  0  0  0  0  0
    4.8764    2.9835   -0.0000 C   0  0  0  0  0  0  0  0  0  0  0  0
    3.5596    3.4978   -0.0000 C   0  0  0  0  0  0  0  0  0  0  0  0
    6.1521    2.2839   -0.0000 C   0  0  0  0  0  0  0  0  0  0  0  0
    5.9875   -2.1810   -0.0000 C   0  0  0  0  0  0  0  0  0  0  0  0
    4.8353    4.5266   -0.0000 C   0  0  0  0  0  0  0  0  0  0  0  0
    7.4278    3.0452   -0.0000 C   0  0  0  0  0  0  0  0  0  0  0  0
    6.1109    5.3085   -0.0000 C   0  0  0  0  0  0  0  0  0  0  0  0
    7.4072    4.5678   -0.0000 C   0  0  0  0  0  0  0  0  0  0  0  0
   10.0203    3.0452   -0.0000 C   0  0  0  0  0  0  0  0  0  0  0  0
    8.6829    5.3702   -0.0000 C   0  0  0  0  0  0  0  0  0  0  0  0
    7.3866    5.8435   -0.0000 C   0  0  0  0  0  0  0  0  0  0  0  0
    9.9997    4.6089   -0.0000 C   0  0  0  0  0  0  0  0  0  0  0  0
    8.6623    6.6459   -0.0000 O   0  0  0  0  0  0  0  0  0  0  0  0
  1  2  2  0  0  0  0
  2  3  1  0  0  0  0
  2  4  1  0  0  0  0
  3  5  2  0  0  0  0
  4  6  2  0  0  0  0
  5  7  1  0  0  0  0
  5  8  1  0  0  0  0
  7  9  2  0  0  0  0
  7 10  1  0  0  0  0
  8 11  1  0  0  0  0
  8 12  1  1  0  0  0
 13  9  1  6  0  0  0
 10 14  1  0  0  0  0
 11 15  1  1  0  0  0
 13 16  1  0  0  0  0
 15 17  1  0  0  0  0
 16 18  1  0  0  0  0
 16 19  1  1  0  0  0
 18 20  1  0  0  0  0
 18 21  1  1  0  0  0
 19 22  1  0  0  0  0
 20 23  2  0  0  0  0
  6  8  1  0  0  0  0
 11 13  1  0  0  0  0
 17 18  1  0  0  0  0
 20 22  1  0  0  0  0
M  END
>  <MolRegNo>
2057936

>  <m>
=

>  <Value>
2.5

>  <Unit>
nM

>  <Type>
Ki

>  <pValue>
8.6

>  <Ligand Efficiency>
0.51

>  <Binding Efficiency>
27.71

>  <Surface Efficiency>
25.2

>  <Assay Index>
985353

>  <Assay Category>


>  <Assay Organism>
Homo sapiens

>  <Target ID>
65

>  <Target Name>
Cytochrome P450 19A1

>  <Target Organism>
Homo sapiens

>  <Target Description>
Target is a single protein chain

>  <Sequence Accession>
P11511

>  <Reference>


>  <Pubmed ID>
26469743

>  <DOI>
10.1016/j.ejmech.2015.09.038

$$$$
2057937
Actelion Java MolfileCreator 1.0

 24 27  0  0  0  0  0  0  0  0999 V2000
    0.0000   -0.0000   -0.0000 O   0  0  0  0  0  0  0  0  0  0  0  0
    1.0689    0.6372   -0.0000 C   0  0  0  0  0  0  0  0  0  0  0  0
    2.3434   -0.1028   -0.0000 C   0  0  0  0  0  0  0  0  0  0  0  0
    1.0484    2.1584   -0.0000 C   0  0  0  0  0  0  0  0  0  0  0  0
    3.6179    0.6989   -0.0000 C   0  0  0  0  0  0  0  0  0  0  0  0
    2.3023    2.9190   -0.0000 C   0  0  0  0  0  0  0  0  0  0  0  0
    4.9129   -0.0411   -0.0000 C   0  0  0  0  0  0  0  0  0  0  0  0
    3.5973    2.2201   -0.0000 C   0  0  0  0  0  0  0  0  0  0  0  0
    6.1874    0.7606   -0.0000 C   0  0  0  0  0  0  0  0  0  0  0  0
    4.9129   -1.5828   -0.0000 C   0  0  0  0  0  0  0  0  0  0  0  0
    4.8718    2.9806   -0.0000 C   0  0  0  0  0  0  0  0  0  0  0  0
    3.5562    3.4945   -0.0000 C   0  0  0  0  0  0  0  0  0  0  0  0
    6.1463    2.2817   -0.0000 C   0  0  0  0  0  0  0  0  0  0  0  0
    6.2491   -2.3228   -0.0000 C   0  0  0  0  0  0  0  0  0  0  0  0
    4.8307    4.5223   -0.0000 C   0  0  0  0  0  0  0  0  0  0  0  0
    7.4208    3.0423   -0.0000 C   0  0  0  0  0  0  0  0  0  0  0  0
    6.2491   -3.5562   -0.0000 C   0  0  0  0  0  0  0  0  0  0  0  0
    6.1052    5.3035   -0.0000 C   0  0  0  0  0  0  0  0  0  0  0  0
    7.4002    4.5635   -0.0000 C   0  0  0  0  0  0  0  0  0  0  0  0
   10.0108    3.0423   -0.0000 C   0  0  0  0  0  0  0  0  0  0  0  0
    8.6747    5.3652   -0.0000 C   0  0  0  0  0  0  0  0  0  0  0  0
    7.3797    5.8379   -0.0000 C   0  0  0  0  0  0  0  0  0  0  0  0
    9.9903    4.6046   -0.0000 C   0  0  0  0  0  0  0  0  0  0  0  0
    8.6541    6.6396   -0.0000 O   0  0  0  0  0  0  0  0  0  0  0  0
  1  2  2  0  0  0  0
  2  3  1  0  0  0  0
  2  4  1  0  0  0  0
  3  5  2  0  0  0  0
  4  6  2  0  0  0  0
  5  7  1  0  0  0  0
  5  8  1  0  0  0  0
  7  9  2  0  0  0  0
  7 10  1  0  0  0  0
  8 11  1  0  0  0  0
  8 12  1  1  0  0  0
 13  9  1  6  0  0  0
 10 14  1  0  0  0  0
 11 15  1  1  0  0  0
 13 16  1  0  0  0  0
 14 17  1  0  0  0  0
 15 18  1  0  0  0  0
 16 19  1  0  0  0  0
 16 20  1  1  0  0  0
 19 21  1  0  0  0  0
 19 22  1  1  0  0  0
 20 23  1  0  0  0  0
 21 24  2  0  0  0  0
  6  8  1  0  0  0  0
 11 13  1  0  0  0  0
 18 19  1  0  0  0  0
 21 23  1  0  0  0  0
M  END
>  <MolRegNo>
2057937

>  <m>
=

>  <Value>
2.5

>  <Unit>
nM

>  <Type>
Ki

>  <pValue>
8.6

>  <Ligand Efficiency>
0.49

>  <Binding Efficiency>
26.51

>  <Surface Efficiency>
25.2

>  <Assay Index>
985353

>  <Assay Category>


>  <Assay Organism>
Homo sapiens

>  <Target ID>
65

>  <Target Name>
Cytochrome P450 19A1

>  <Target Organism>
Homo sapiens

>  <Target Description>
Target is a single protein chain

>  <Sequence Accession>
P11511

>  <Reference>


>  <Pubmed ID>
26469743

>  <DOI>
10.1016/j.ejmech.2015.09.038

$$$$
2057938
Actelion Java MolfileCreator 1.0

 25 28  0  0  0  0  0  0  0  0999 V2000
    0.0000   -0.0000   -0.0000 O   0  0  0  0  0  0  0  0  0  0  0  0
    1.0681    0.6368   -0.0000 C   0  0  0  0  0  0  0  0  0  0  0  0
    2.3416   -0.1027   -0.0000 C   0  0  0  0  0  0  0  0  0  0  0  0
    1.0476    2.1567   -0.0000 C   0  0  0  0  0  0  0  0  0  0  0  0
    3.6151    0.6984   -0.0000 C   0  0  0  0  0  0  0  0  0  0  0  0
    2.3005    2.9167   -0.0000 C   0  0  0  0  0  0  0  0  0  0  0  0
    4.9091   -0.0411   -0.0000 C   0  0  0  0  0  0  0  0  0  0  0  0
    3.5946    2.2184   -0.0000 C   0  0  0  0  0  0  0  0  0  0  0  0
    6.1826    0.7600   -0.0000 C   0  0  0  0  0  0  0  0  0  0  0  0
    4.9091   -1.5816   -0.0000 C   0  0  0  0  0  0  0  0  0  0  0  0
    4.8681    2.9784   -0.0000 C   0  0  0  0  0  0  0  0  0  0  0  0
    3.5535    3.4919   -0.0000 C   0  0  0  0  0  0  0  0  0  0  0  0
    6.1416    2.2800   -0.0000 C   0  0  0  0  0  0  0  0  0  0  0  0
    6.2443   -2.3211   -0.0000 C   0  0  0  0  0  0  0  0  0  0  0  0
    4.8270    4.5189   -0.0000 C   0  0  0  0  0  0  0  0  0  0  0  0
    7.4151    3.0400   -0.0000 C   0  0  0  0  0  0  0  0  0  0  0  0
    6.2443   -3.8616   -0.0000 C   0  0  0  0  0  0  0  0  0  0  0  0
    6.1005    5.2994   -0.0000 C   0  0  0  0  0  0  0  0  0  0  0  0
    7.3945    4.5600   -0.0000 C   0  0  0  0  0  0  0  0  0  0  0  0
   10.0032    3.0400   -0.0000 C   0  0  0  0  0  0  0  0  0  0  0  0
    7.3124   -4.4573   -0.0000 C   0  0  0  0  0  0  0  0  0  0  0  0
    8.6680    5.3610   -0.0000 C   0  0  0  0  0  0  0  0  0  0  0  0
    7.3740    5.8335   -0.0000 C   0  0  0  0  0  0  0  0  0  0  0  0
    9.9826    4.6010   -0.0000 C   0  0  0  0  0  0  0  0  0  0  0  0
    8.6475    6.6345   -0.0000 O   0  0  0  0  0  0  0  0  0  0  0  0
  1  2  2  0  0  0  0
  2  3  1  0  0  0  0
  2  4  1  0  0  0  0
  3  5  2  0  0  0  0
  4  6  2  0  0  0  0
  5  7  1  0  0  0  0
  5  8  1  0  0  0  0
  7  9  2  0  0  0  0
  7 10  1  0  0  0  0
  8 11  1  0  0  0  0
  8 12  1  1  0  0  0
 13  9  1  6  0  0  0
 10 14  1  0  0  0  0
 11 15  1  1  0  0  0
 13 16  1  0  0  0  0
 14 17  1  0  0  0  0
 15 18  1  0  0  0  0
 16 19  1  0  0  0  0
 16 20  1  1  0  0  0
 17 21  1  0  0  0  0
 19 22  1  0  0  0  0
 19 23  1  1  0  0  0
 20 24  1  0  0  0  0
 22 25  2  0  0  0  0
  6  8  1  0  0  0  0
 11 13  1  0  0  0  0
 18 19  1  0  0  0  0
 22 24  1  0  0  0  0
M  END
>  <MolRegNo>
2057938

>  <m>
=

>  <Value>
2.5

>  <Unit>
nM

>  <Type>
Ki

>  <pValue>
8.6

>  <Ligand Efficiency>
0.47

>  <Binding Efficiency>
25.41

>  <Surface Efficiency>
25.2

>  <Assay Index>
985353

>  <Assay Category>


>  <Assay Organism>
Homo sapiens

>  <Target ID>
65

>  <Target Name>
Cytochrome P450 19A1

>  <Target Organism>
Homo sapiens

>  <Target Description>
Target is a single protein chain

>  <Sequence Accession>
P11511

>  <Reference>


>  <Pubmed ID>
26469743

>  <DOI>
10.1016/j.ejmech.2015.09.038

$$$$
2057939
Actelion Java MolfileCreator 1.0

 26 29  0  0  0  0  0  0  0  0999 V2000
    0.0000   -0.0000   -0.0000 O   0  0  0  0  0  0  0  0  0  0  0  0
    1.0672    0.6362   -0.0000 C   0  0  0  0  0  0  0  0  0  0  0  0
    2.3397   -0.1026   -0.0000 C   0  0  0  0  0  0  0  0  0  0  0  0
    1.0467    2.1550   -0.0000 C   0  0  0  0  0  0  0  0  0  0  0  0
    3.6121    0.6978   -0.0000 C   0  0  0  0  0  0  0  0  0  0  0  0
    2.2986    2.9143   -0.0000 C   0  0  0  0  0  0  0  0  0  0  0  0
    4.9051   -0.0410   -0.0000 C   0  0  0  0  0  0  0  0  0  0  0  0
    3.5916    2.2165   -0.0000 C   0  0  0  0  0  0  0  0  0  0  0  0
    6.1776    0.7594   -0.0000 C   0  0  0  0  0  0  0  0  0  0  0  0
    4.9051   -1.5803   -0.0000 C   0  0  0  0  0  0  0  0  0  0  0  0
    4.8641    2.9759   -0.0000 C   0  0  0  0  0  0  0  0  0  0  0  0
    3.5506    3.4890   -0.0000 C   0  0  0  0  0  0  0  0  0  0  0  0
    6.1365    2.2781   -0.0000 C   0  0  0  0  0  0  0  0  0  0  0  0
    6.2392   -2.3192   -0.0000 C   0  0  0  0  0  0  0  0  0  0  0  0
    4.8230    4.5152   -0.0000 C   0  0  0  0  0  0  0  0  0  0  0  0
    7.4090    3.0375   -0.0000 C   0  0  0  0  0  0  0  0  0  0  0  0
    6.2392   -3.8584   -0.0000 C   0  0  0  0  0  0  0  0  0  0  0  0
    6.0955    5.2951   -0.0000 C   0  0  0  0  0  0  0  0  0  0  0  0
    7.3885    4.5562   -0.0000 C   0  0  0  0  0  0  0  0  0  0  0  0
    9.9950    3.0375   -0.0000 C   0  0  0  0  0  0  0  0  0  0  0  0
    7.5732   -4.5973   -0.0000 C   0  0  0  0  0  0  0  0  0  0  0  0
    8.6609    5.3566   -0.0000 C   0  0  0  0  0  0  0  0  0  0  0  0
    7.3679    5.8287   -0.0000 C   0  0  0  0  0  0  0  0  0  0  0  0
    9.9744    4.5973   -0.0000 C   0  0  0  0  0  0  0  0  0  0  0  0
    7.5732   -5.8287   -0.0000 C   0  0  0  0  0  0  0  0  0  0  0  0
    8.6404    6.6291   -0.0000 O   0  0  0  0  0  0  0  0  0  0  0  0
  1  2  2  0  0  0  0
  2  3  1  0  0  0  0
  2  4  1  0  0  0  0
  3  5  2  0  0  0  0
  4  6  2  0  0  0  0
  5  7  1  0  0  0  0
  5  8  1  0  0  0  0
  7  9  2  0  0  0  0
  7 10  1  0  0  0  0
  8 11  1  0  0  0  0
  8 12  1  1  0  0  0
 13  9  1  6  0  0  0
 10 14  1  0  0  0  0
 11 15  1  1  0  0  0
 13 16  1  0  0  0  0
 14 17  1  0  0  0  0
 15 18  1  0  0  0  0
 16 19  1  0  0  0  0
 16 20  1  1  0  0  0
 17 21  1  0  0  0  0
 19 22  1  0  0  0  0
 19 23  1  1  0  0  0
 20 24  1  0  0  0  0
 21 25  1  0  0  0  0
 22 26  2  0  0  0  0
  6  8  1  0  0  0  0
 11 13  1  0  0  0  0
 18 19  1  0  0  0  0
 22 24  1  0  0  0  0
M  END
>  <MolRegNo>
2057939

>  <m>
=

>  <Value>
2.5

>  <Unit>
nM

>  <Type>
Ki

>  <pValue>
8.6

>  <Ligand Efficiency>
0.45

>  <Binding Efficiency>
24.4

>  <Surface Efficiency>
25.2

>  <Assay Index>
985353

>  <Assay Category>


>  <Assay Organism>
Homo sapiens

>  <Target ID>
65

>  <Target Name>
Cytochrome P450 19A1

>  <Target Organism>
Homo sapiens

>  <Target Description>
Target is a single protein chain

>  <Sequence Accession>
P11511

>  <Reference>


>  <Pubmed ID>
26469743

>  <DOI>
10.1016/j.ejmech.2015.09.038

$$$$
2057940
Actelion Java MolfileCreator 1.0

 27 30  0  0  0  0  0  0  0  0999 V2000
    0.0000   -0.0000   -0.0000 O   0  0  0  0  0  0  0  0  0  0  0  0
    1.0665    0.6358   -0.0000 C   0  0  0  0  0  0  0  0  0  0  0  0
    2.3381   -0.1025   -0.0000 C   0  0  0  0  0  0  0  0  0  0  0  0
    1.0460    2.1535   -0.0000 C   0  0  0  0  0  0  0  0  0  0  0  0
    3.6097    0.6973   -0.0000 C   0  0  0  0  0  0  0  0  0  0  0  0
    2.2971    2.9124   -0.0000 C   0  0  0  0  0  0  0  0  0  0  0  0
    4.9019   -0.0410   -0.0000 C   0  0  0  0  0  0  0  0  0  0  0  0
    3.5892    2.2151   -0.0000 C   0  0  0  0  0  0  0  0  0  0  0  0
    6.1735    0.7589   -0.0000 C   0  0  0  0  0  0  0  0  0  0  0  0
    4.9019   -1.5793   -0.0000 C   0  0  0  0  0  0  0  0  0  0  0  0
    4.8609    2.9739   -0.0000 C   0  0  0  0  0  0  0  0  0  0  0  0
    3.5482    3.4867   -0.0000 C   0  0  0  0  0  0  0  0  0  0  0  0
    6.1325    2.2766   -0.0000 C   0  0  0  0  0  0  0  0  0  0  0  0
    6.2350   -2.3176   -0.0000 C   0  0  0  0  0  0  0  0  0  0  0  0
    4.8198    4.5122   -0.0000 C   0  0  0  0  0  0  0  0  0  0  0  0
    7.4041    3.0355   -0.0000 C   0  0  0  0  0  0  0  0  0  0  0  0
    6.2350   -3.8559   -0.0000 C   0  0  0  0  0  0  0  0  0  0  0  0
    6.0915    5.2916   -0.0000 C   0  0  0  0  0  0  0  0  0  0  0  0
    7.3836    4.5532   -0.0000 C   0  0  0  0  0  0  0  0  0  0  0  0
    9.9883    3.0355   -0.0000 C   0  0  0  0  0  0  0  0  0  0  0  0
    7.5682   -4.5942   -0.0000 C   0  0  0  0  0  0  0  0  0  0  0  0
    8.6552    5.3531   -0.0000 C   0  0  0  0  0  0  0  0  0  0  0  0
    7.3631    5.8248   -0.0000 C   0  0  0  0  0  0  0  0  0  0  0  0
    9.9678    4.5942   -0.0000 C   0  0  0  0  0  0  0  0  0  0  0  0
    7.5682   -6.1325   -0.0000 C   0  0  0  0  0  0  0  0  0  0  0  0
    8.6347    6.6247   -0.0000 O   0  0  0  0  0  0  0  0  0  0  0  0
    8.6347   -6.7273   -0.0000 C   0  0  0  0  0  0  0  0  0  0  0  0
  1  2  2  0  0  0  0
  2  3  1  0  0  0  0
  2  4  1  0  0  0  0
  3  5  2  0  0  0  0
  4  6  2  0  0  0  0
  5  7  1  0  0  0  0
  5  8  1  0  0  0  0
  7  9  2  0  0  0  0
  7 10  1  0  0  0  0
  8 11  1  0  0  0  0
  8 12  1  1  0  0  0
 13  9  1  6  0  0  0
 10 14  1  0  0  0  0
 11 15  1  1  0  0  0
 13 16  1  0  0  0  0
 14 17  1  0  0  0  0
 15 18  1  0  0  0  0
 16 19  1  0  0  0  0
 16 20  1  1  0  0  0
 17 21  1  0  0  0  0
 19 22  1  0  0  0  0
 19 23  1  1  0  0  0
 20 24  1  0  0  0  0
 21 25  1  0  0  0  0
 22 26  2  0  0  0  0
 25 27  1  0  0  0  0
  6  8  1  0  0  0  0
 11 13  1  0  0  0  0
 18 19  1  0  0  0  0
 22 24  1  0  0  0  0
M  END
>  <MolRegNo>
2057940

>  <m>
=

>  <Value>
2.5

>  <Unit>
nM

>  <Type>
Ki

>  <pValue>
8.6

>  <Ligand Efficiency>
0.44

>  <Binding Efficiency>
23.47

>  <Surface Efficiency>
25.2

>  <Assay Index>
985353

>  <Assay Category>


>  <Assay Organism>
Homo sapiens

>  <Target ID>
65

>  <Target Name>
Cytochrome P450 19A1

>  <Target Organism>
Homo sapiens

>  <Target Description>
Target is a single protein chain

>  <Sequence Accession>
P11511

>  <Reference>


>  <Pubmed ID>
26469743

>  <DOI>
10.1016/j.ejmech.2015.09.038

$$$$
2057941
Actelion Java MolfileCreator 1.0

 28 31  0  0  0  0  0  0  0  0999 V2000
    0.0000   -0.0000   -0.0000 O   0  0  0  0  0  0  0  0  0  0  0  0
    1.0658    0.6354   -0.0000 C   0  0  0  0  0  0  0  0  0  0  0  0
    2.3365   -0.1025   -0.0000 C   0  0  0  0  0  0  0  0  0  0  0  0
    1.0453    2.1520   -0.0000 C   0  0  0  0  0  0  0  0  0  0  0  0
    3.6072    0.6968   -0.0000 C   0  0  0  0  0  0  0  0  0  0  0  0
    2.2955    2.9103   -0.0000 C   0  0  0  0  0  0  0  0  0  0  0  0
    4.8984   -0.0410   -0.0000 C   0  0  0  0  0  0  0  0  0  0  0  0
    3.5867    2.2135   -0.0000 C   0  0  0  0  0  0  0  0  0  0  0  0
    6.1691    0.7583   -0.0000 C   0  0  0  0  0  0  0  0  0  0  0  0
    4.8984   -1.5781   -0.0000 C   0  0  0  0  0  0  0  0  0  0  0  0
    4.8574    2.9718   -0.0000 C   0  0  0  0  0  0  0  0  0  0  0  0
    3.5457    3.4842   -0.0000 C   0  0  0  0  0  0  0  0  0  0  0  0
    6.1281    2.2750   -0.0000 C   0  0  0  0  0  0  0  0  0  0  0  0
    6.2305   -2.3160   -0.0000 C   0  0  0  0  0  0  0  0  0  0  0  0
    4.8164    4.5089   -0.0000 C   0  0  0  0  0  0  0  0  0  0  0  0
    7.3988    3.0333   -0.0000 C   0  0  0  0  0  0  0  0  0  0  0  0
    6.2305   -3.8531   -0.0000 C   0  0  0  0  0  0  0  0  0  0  0  0
    6.0871    5.2878   -0.0000 C   0  0  0  0  0  0  0  0  0  0  0  0
    7.3783    4.5499   -0.0000 C   0  0  0  0  0  0  0  0  0  0  0  0
    9.9812    3.0333   -0.0000 C   0  0  0  0  0  0  0  0  0  0  0  0
    7.5627   -4.5909   -0.0000 C   0  0  0  0  0  0  0  0  0  0  0  0
    8.6490    5.3493   -0.0000 C   0  0  0  0  0  0  0  0  0  0  0  0
    7.3578    5.8206   -0.0000 C   0  0  0  0  0  0  0  0  0  0  0  0
    9.9607    4.5909   -0.0000 C   0  0  0  0  0  0  0  0  0  0  0  0
    7.5627   -6.1281   -0.0000 C   0  0  0  0  0  0  0  0  0  0  0  0
    8.6285    6.6200   -0.0000 O   0  0  0  0  0  0  0  0  0  0  0  0
    8.8949   -6.8659   -0.0000 C   0  0  0  0  0  0  0  0  0  0  0  0
    8.8949   -8.0956   -0.0000 C   0  0  0  0  0  0  0  0  0  0  0  0
  1  2  2  0  0  0  0
  2  3  1  0  0  0  0
  2  4  1  0  0  0  0
  3  5  2  0  0  0  0
  4  6  2  0  0  0  0
  5  7  1  0  0  0  0
  5  8  1  0  0  0  0
  7  9  2  0  0  0  0
  7 10  1  0  0  0  0
  8 11  1  0  0  0  0
  8 12  1  1  0  0  0
 13  9  1  6  0  0  0
 10 14  1  0  0  0  0
 11 15  1  1  0  0  0
 13 16  1  0  0  0  0
 14 17  1  0  0  0  0
 15 18  1  0  0  0  0
 16 19  1  0  0  0  0
 16 20  1  1  0  0  0
 17 21  1  0  0  0  0
 19 22  1  0  0  0  0
 19 23  1  1  0  0  0
 20 24  1  0  0  0  0
 21 25  1  0  0  0  0
 22 26  2  0  0  0  0
 25 27  1  0  0  0  0
 27 28  1  0  0  0  0
  6  8  1  0  0  0  0
 11 13  1  0  0  0  0
 18 19  1  0  0  0  0
 22 24  1  0  0  0  0
M  END
>  <MolRegNo>
2057941

>  <m>
=

>  <Value>
2.5

>  <Unit>
nM

>  <Type>
Ki

>  <pValue>
8.6

>  <Ligand Efficiency>
0.42

>  <Binding Efficiency>
22.6

>  <Surface Efficiency>
25.2

>  <Assay Index>
985353

>  <Assay Category>


>  <Assay Organism>
Homo sapiens

>  <Target ID>
65

>  <Target Name>
Cytochrome P450 19A1

>  <Target Organism>
Homo sapiens

>  <Target Description>
Target is a single protein chain

>  <Sequence Accession>
P11511

>  <Reference>


>  <Pubmed ID>
26469743

>  <DOI>
10.1016/j.ejmech.2015.09.038

$$$$
2057942
Actelion Java MolfileCreator 1.0

 29 33  0  0  0  0  0  0  0  0999 V2000
    0.0000   -0.0000   -0.0000 O   0  0  0  0  0  0  0  0  0  0  0  0
    1.0564    0.6298   -0.0000 C   0  0  0  0  0  0  0  0  0  0  0  0
    2.3160   -0.1016   -0.0000 C   0  0  0  0  0  0  0  0  0  0  0  0
    1.0361    2.1332   -0.0000 C   0  0  0  0  0  0  0  0  0  0  0  0
    3.5756    0.6907   -0.0000 C   0  0  0  0  0  0  0  0  0  0  0  0
    2.2754    2.8849   -0.0000 C   0  0  0  0  0  0  0  0  0  0  0  0
    3.5553    2.1941   -0.0000 C   0  0  0  0  0  0  0  0  0  0  0  0
    4.8555   -0.0406   -0.0000 C   0  0  0  0  0  0  0  0  0  0  0  0
    4.8149    2.9458   -0.0000 C   0  0  0  0  0  0  0  0  0  0  0  0
    3.5147    3.4537   -0.0000 C   0  0  0  0  0  0  0  0  0  0  0  0
    6.1151    0.7517   -0.0000 C   0  0  0  0  0  0  0  0  0  0  0  0
    4.8555   -1.5643   -0.0000 C   0  0  0  0  0  0  0  0  0  0  0  0
    6.0745    2.2551   -0.0000 C   0  0  0  0  0  0  0  0  0  0  0  0
    4.7742    4.4695   -0.0000 C   0  0  0  0  0  0  0  0  0  0  0  0
    3.5147   -2.3160   -0.0000 C   0  0  0  0  0  0  0  0  0  0  0  0
    7.3341    3.0068   -0.0000 C   0  0  0  0  0  0  0  0  0  0  0  0
    6.0338    5.2415   -0.0000 C   0  0  0  0  0  0  0  0  0  0  0  0
    3.5147   -3.8397   -0.0000 C   0  0  0  0  0  0  0  0  0  0  0  0
    7.3137    4.5101   -0.0000 C   0  0  0  0  0  0  0  0  0  0  0  0
    9.8939    3.0068   -0.0000 C   0  0  0  0  0  0  0  0  0  0  0  0
    4.8352   -4.5711   -0.0000 C   0  0  0  0  0  0  0  0  0  0  0  0
    2.1738   -4.5914   -0.0000 C   0  0  0  0  0  0  0  0  0  0  0  0
    8.5733    5.3025   -0.0000 C   0  0  0  0  0  0  0  0  0  0  0  0
    7.2934    5.7697   -0.0000 C   0  0  0  0  0  0  0  0  0  0  0  0
    9.8736    4.5508   -0.0000 C   0  0  0  0  0  0  0  0  0  0  0  0
    4.8352   -6.0948   -0.0000 C   0  0  0  0  0  0  0  0  0  0  0  0
    2.1738   -6.1151   -0.0000 C   0  0  0  0  0  0  0  0  0  0  0  0
    8.5530    6.5621   -0.0000 O   0  0  0  0  0  0  0  0  0  0  0  0
    3.4943   -6.8465   -0.0000 C   0  0  0  0  0  0  0  0  0  0  0  0
  1  2  2  0  0  0  0
  2  3  1  0  0  0  0
  2  4  1  0  0  0  0
  3  5  2  0  0  0  0
  4  6  1  0  0  0  0
  5  7  1  0  0  0  0
  5  8  1  0  0  0  0
  7  9  1  0  0  0  0
  7 10  1  6  0  0  0
  8 11  1  0  0  0  0
  8 12  1  1  0  0  0
  9 13  1  0  0  0  0
  9 14  1  6  0  0  0
 12 15  1  0  0  0  0
 13 16  1  0  0  0  0
 14 17  1  0  0  0  0
 15 18  1  0  0  0  0
 16 19  1  0  0  0  0
 16 20  1  6  0  0  0
 18 21  2  0  0  0  0
 18 22  1  0  0  0  0
 19 23  1  0  0  0  0
 19 24  1  6  0  0  0
 20 25  1  0  0  0  0
 21 26  1  0  0  0  0
 22 27  2  0  0  0  0
 23 28  2  0  0  0  0
 26 29  2  0  0  0  0
  6  7  1  0  0  0  0
 13 11  1  1  0  0  0
 17 19  1  0  0  0  0
 23 25  1  0  0  0  0
 27 29  1  0  0  0  0
M  END
>  <MolRegNo>
2057942

>  <m>
=

>  <Value>
16

>  <Unit>
nM

>  <Type>
Ki

>  <pValue>
7.8

>  <Ligand Efficiency>
0.37

>  <Binding Efficiency>
19.96

>  <Surface Efficiency>
22.84

>  <Assay Index>
985353

>  <Assay Category>


>  <Assay Organism>
Homo sapiens

>  <Target ID>
65

>  <Target Name>
Cytochrome P450 19A1

>  <Target Organism>
Homo sapiens

>  <Target Description>
Target is a single protein chain

>  <Sequence Accession>
P11511

>  <Reference>


>  <Pubmed ID>
26469743

>  <DOI>
10.1016/j.ejmech.2015.09.038

$$$$
2057943
Actelion Java MolfileCreator 1.0

 31 35  0  0  0  0  0  0  0  0999 V2000
    0.0000   -0.0000   -0.0000 O   0  0  0  0  0  0  0  0  0  0  0  0
    1.0552    0.6291   -0.0000 C   0  0  0  0  0  0  0  0  0  0  0  0
    2.3133   -0.1015   -0.0000 C   0  0  0  0  0  0  0  0  0  0  0  0
    1.0349    2.1307   -0.0000 C   0  0  0  0  0  0  0  0  0  0  0  0
    3.5715    0.6899   -0.0000 C   0  0  0  0  0  0  0  0  0  0  0  0
    2.2728    2.8815   -0.0000 C   0  0  0  0  0  0  0  0  0  0  0  0
    3.5512    2.1916   -0.0000 C   0  0  0  0  0  0  0  0  0  0  0  0
    4.8499   -0.0406   -0.0000 C   0  0  0  0  0  0  0  0  0  0  0  0
    4.8093    2.9424   -0.0000 C   0  0  0  0  0  0  0  0  0  0  0  0
    3.5106    3.4497   -0.0000 C   0  0  0  0  0  0  0  0  0  0  0  0
    6.1080    0.7508   -0.0000 C   0  0  0  0  0  0  0  0  0  0  0  0
    4.8499   -1.5625   -0.0000 C   0  0  0  0  0  0  0  0  0  0  0  0
    6.0674    2.2525   -0.0000 C   0  0  0  0  0  0  0  0  0  0  0  0
    4.7687    4.4643   -0.0000 C   0  0  0  0  0  0  0  0  0  0  0  0
    3.5106   -2.3133   -0.0000 C   0  0  0  0  0  0  0  0  0  0  0  0
    7.3256    3.0033   -0.0000 C   0  0  0  0  0  0  0  0  0  0  0  0
    6.0268    5.2354   -0.0000 C   0  0  0  0  0  0  0  0  0  0  0  0
    3.5106   -3.8353   -0.0000 C   0  0  0  0  0  0  0  0  0  0  0  0
    7.3053    4.5049   -0.0000 C   0  0  0  0  0  0  0  0  0  0  0  0
    9.8824    3.0033   -0.0000 C   0  0  0  0  0  0  0  0  0  0  0  0
    2.1713   -4.5861   -0.0000 C   0  0  0  0  0  0  0  0  0  0  0  0
    8.5634    5.2963   -0.0000 C   0  0  0  0  0  0  0  0  0  0  0  0
    7.2850    5.7630   -0.0000 C   0  0  0  0  0  0  0  0  0  0  0  0
    9.8621    4.5455   -0.0000 C   0  0  0  0  0  0  0  0  0  0  0  0
    2.1713   -6.1080   -0.0000 C   0  0  0  0  0  0  0  0  0  0  0  0
    8.5431    6.5545   -0.0000 O   0  0  0  0  0  0  0  0  0  0  0  0
    3.4903   -6.8385   -0.0000 C   0  0  0  0  0  0  0  0  0  0  0  0
    0.8320   -6.8588   -0.0000 C   0  0  0  0  0  0  0  0  0  0  0  0
    3.4903   -8.3605   -0.0000 C   0  0  0  0  0  0  0  0  0  0  0  0
    0.8320   -8.3808   -0.0000 C   0  0  0  0  0  0  0  0  0  0  0  0
    2.1510   -9.1113   -0.0000 C   0  0  0  0  0  0  0  0  0  0  0  0
  1  2  2  0  0  0  0
  2  3  1  0  0  0  0
  2  4  1  0  0  0  0
  3  5  2  0  0  0  0
  4  6  1  0  0  0  0
  5  7  1  0  0  0  0
  5  8  1  0  0  0  0
  7  9  1  0  0  0  0
  7 10  1  6  0  0  0
  8 11  1  0  0  0  0
  8 12  1  6  0  0  0
  9 13  1  0  0  0  0
  9 14  1  6  0  0  0
 12 15  1  0  0  0  0
 13 16  1  0  0  0  0
 14 17  1  0  0  0  0
 15 18  1  0  0  0  0
 16 19  1  0  0  0  0
 16 20  1  6  0  0  0
 18 21  1  0  0  0  0
 19 22  1  0  0  0  0
 19 23  1  6  0  0  0
 20 24  1  0  0  0  0
 21 25  1  0  0  0  0
 22 26  2  0  0  0  0
 25 27  2  0  0  0  0
 25 28  1  0  0  0  0
 27 29  1  0  0  0  0
 28 30  2  0  0  0  0
 29 31  2  0  0  0  0
  6  7  1  0  0  0  0
 13 11  1  1  0  0  0
 17 19  1  0  0  0  0
 22 24  1  0  0  0  0
 30 31  1  0  0  0  0
M  END
>  <MolRegNo>
2057943

>  <m>
=

>  <Value>
16

>  <Unit>
nM

>  <Type>
Ki

>  <pValue>
7.8

>  <Ligand Efficiency>
0.34

>  <Binding Efficiency>
18.62

>  <Surface Efficiency>
22.84

>  <Assay Index>
985353

>  <Assay Category>


>  <Assay Organism>
Homo sapiens

>  <Target ID>
65

>  <Target Name>
Cytochrome P450 19A1

>  <Target Organism>
Homo sapiens

>  <Target Description>
Target is a single protein chain

>  <Sequence Accession>
P11511

>  <Reference>


>  <Pubmed ID>
26469743

>  <DOI>
10.1016/j.ejmech.2015.09.038

$$$$
2057944
Actelion Java MolfileCreator 1.0

 28 32  0  0  0  0  0  0  0  0999 V2000
    0.0000   -0.0000   -0.0000 O   0  0  0  0  0  0  0  0  0  0  0  0
    1.0577    0.6306   -0.0000 C   0  0  0  0  0  0  0  0  0  0  0  0
    2.3189   -0.1017   -0.0000 C   0  0  0  0  0  0  0  0  0  0  0  0
    1.0374    2.1358   -0.0000 C   0  0  0  0  0  0  0  0  0  0  0  0
    3.5800    0.6916   -0.0000 C   0  0  0  0  0  0  0  0  0  0  0  0
    2.2782    2.8884   -0.0000 C   0  0  0  0  0  0  0  0  0  0  0  0
    4.8615   -0.0407   -0.0000 C   0  0  0  0  0  0  0  0  0  0  0  0
    3.5597    2.1968   -0.0000 C   0  0  0  0  0  0  0  0  0  0  0  0
    6.1226    0.7526   -0.0000 C   0  0  0  0  0  0  0  0  0  0  0  0
    4.8615   -1.5663   -0.0000 C   0  0  0  0  0  0  0  0  0  0  0  0
    4.8208    2.9494   -0.0000 C   0  0  0  0  0  0  0  0  0  0  0  0
    3.5190    3.4580   -0.0000 C   0  0  0  0  0  0  0  0  0  0  0  0
    6.0820    2.2579   -0.0000 C   0  0  0  0  0  0  0  0  0  0  0  0
    6.1837   -2.2985   -0.0000 C   0  0  0  0  0  0  0  0  0  0  0  0
    4.7801    4.4750   -0.0000 C   0  0  0  0  0  0  0  0  0  0  0  0
    7.3431    3.0105   -0.0000 C   0  0  0  0  0  0  0  0  0  0  0  0
    7.4855   -1.4849   -0.0000 C   0  0  0  0  0  0  0  0  0  0  0  0
    6.1837   -3.8241   -0.0000 C   0  0  0  0  0  0  0  0  0  0  0  0
    6.0413    5.2480   -0.0000 C   0  0  0  0  0  0  0  0  0  0  0  0
    7.3228    4.5157   -0.0000 C   0  0  0  0  0  0  0  0  0  0  0  0
    9.9061    3.0105   -0.0000 C   0  0  0  0  0  0  0  0  0  0  0  0
    8.8077   -2.2172   -0.0000 C   0  0  0  0  0  0  0  0  0  0  0  0
    7.5058   -4.5564   -0.0000 C   0  0  0  0  0  0  0  0  0  0  0  0
    8.5839    5.3090   -0.0000 C   0  0  0  0  0  0  0  0  0  0  0  0
    7.3024    5.7768   -0.0000 C   0  0  0  0  0  0  0  0  0  0  0  0
    9.8857    4.5564   -0.0000 C   0  0  0  0  0  0  0  0  0  0  0  0
    8.8077   -3.7427   -0.0000 C   0  0  0  0  0  0  0  0  0  0  0  0
    8.5636    6.5701   -0.0000 O   0  0  0  0  0  0  0  0  0  0  0  0
  1  2  2  0  0  0  0
  2  3  1  0  0  0  0
  2  4  1  0  0  0  0
  3  5  2  0  0  0  0
  4  6  1  0  0  0  0
  5  7  1  0  0  0  0
  5  8  1  0  0  0  0
  7  9  2  0  0  0  0
  7 10  1  0  0  0  0
  8 11  1  0  0  0  0
  8 12  1  6  0  0  0
 13  9  1  1  0  0  0
 10 14  1  0  0  0  0
 11 15  1  6  0  0  0
 13 16  1  0  0  0  0
 14 17  2  0  0  0  0
 14 18  1  0  0  0  0
 15 19  1  0  0  0  0
 16 20  1  0  0  0  0
 16 21  1  6  0  0  0
 17 22  1  0  0  0  0
 18 23  2  0  0  0  0
 20 24  1  0  0  0  0
 20 25  1  6  0  0  0
 21 26  1  0  0  0  0
 22 27  2  0  0  0  0
 24 28  2  0  0  0  0
  6  8  1  0  0  0  0
 11 13  1  0  0  0  0
 19 20  1  0  0  0  0
 23 27  1  0  0  0  0
 24 26  1  0  0  0  0
M  END
>  <MolRegNo>
2057944

>  <m>
=

>  <Value>
9

>  <Unit>
nM

>  <Type>
Ki

>  <pValue>
8.05

>  <Ligand Efficiency>
0.39

>  <Binding Efficiency>
21.48

>  <Surface Efficiency>
23.57

>  <Assay Index>
985353

>  <Assay Category>


>  <Assay Organism>
Homo sapiens

>  <Target ID>
65

>  <Target Name>
Cytochrome P450 19A1

>  <Target Organism>
Homo sapiens

>  <Target Description>
Target is a single protein chain

>  <Sequence Accession>
P11511

>  <Reference>


>  <Pubmed ID>
26469743

>  <DOI>
10.1016/j.ejmech.2015.09.038

$$$$
2057945
Actelion Java MolfileCreator 1.0

 29 33  0  0  0  0  0  0  0  0999 V2000
    0.0000   -0.0000   -0.0000 O   0  0  0  0  0  0  0  0  0  0  0  0
    1.0570    0.6301   -0.0000 C   0  0  0  0  0  0  0  0  0  0  0  0
    2.3173   -0.1016   -0.0000 C   0  0  0  0  0  0  0  0  0  0  0  0
    1.0367    2.1344   -0.0000 C   0  0  0  0  0  0  0  0  0  0  0  0
    3.5776    0.6911   -0.0000 C   0  0  0  0  0  0  0  0  0  0  0  0
    2.2767    2.8865   -0.0000 C   0  0  0  0  0  0  0  0  0  0  0  0
    4.8582   -0.0407   -0.0000 C   0  0  0  0  0  0  0  0  0  0  0  0
    3.5573    2.1953   -0.0000 C   0  0  0  0  0  0  0  0  0  0  0  0
    6.1185    0.7521   -0.0000 C   0  0  0  0  0  0  0  0  0  0  0  0
    4.8582   -1.5652   -0.0000 C   0  0  0  0  0  0  0  0  0  0  0  0
    4.8176    2.9475   -0.0000 C   0  0  0  0  0  0  0  0  0  0  0  0
    3.5166    3.4556   -0.0000 C   0  0  0  0  0  0  0  0  0  0  0  0
    6.0779    2.2563   -0.0000 C   0  0  0  0  0  0  0  0  0  0  0  0
    6.1795   -2.2970   -0.0000 C   0  0  0  0  0  0  0  0  0  0  0  0
    4.7769    4.4720   -0.0000 C   0  0  0  0  0  0  0  0  0  0  0  0
    7.3382    3.0084   -0.0000 C   0  0  0  0  0  0  0  0  0  0  0  0
    6.1795   -3.8215   -0.0000 C   0  0  0  0  0  0  0  0  0  0  0  0
    6.0372    5.2444   -0.0000 C   0  0  0  0  0  0  0  0  0  0  0  0
    7.3178    4.5127   -0.0000 C   0  0  0  0  0  0  0  0  0  0  0  0
    9.8994    3.0084   -0.0000 C   0  0  0  0  0  0  0  0  0  0  0  0
    4.8379   -4.5736   -0.0000 C   0  0  0  0  0  0  0  0  0  0  0  0
    7.5008   -4.5533   -0.0000 C   0  0  0  0  0  0  0  0  0  0  0  0
    8.5781    5.3054   -0.0000 C   0  0  0  0  0  0  0  0  0  0  0  0
    7.2975    5.7730   -0.0000 C   0  0  0  0  0  0  0  0  0  0  0  0
    9.8791    4.5533   -0.0000 C   0  0  0  0  0  0  0  0  0  0  0  0
    4.8379   -6.0982   -0.0000 C   0  0  0  0  0  0  0  0  0  0  0  0
    7.5008   -6.0779   -0.0000 C   0  0  0  0  0  0  0  0  0  0  0  0
    8.5578    6.5657   -0.0000 O   0  0  0  0  0  0  0  0  0  0  0  0
    6.1592   -6.8300   -0.0000 C   0  0  0  0  0  0  0  0  0  0  0  0
  1  2  2  0  0  0  0
  2  3  1  0  0  0  0
  2  4  1  0  0  0  0
  3  5  2  0  0  0  0
  4  6  1  0  0  0  0
  5  7  1  0  0  0  0
  5  8  1  0  0  0  0
  7  9  2  0  0  0  0
  7 10  1  0  0  0  0
  8 11  1  0  0  0  0
  8 12  1  6  0  0  0
 13  9  1  1  0  0  0
 10 14  1  0  0  0  0
 11 15  1  6  0  0  0
 13 16  1  0  0  0  0
 14 17  1  0  0  0  0
 15 18  1  0  0  0  0
 16 19  1  0  0  0  0
 16 20  1  6  0  0  0
 17 21  2  0  0  0  0
 17 22  1  0  0  0  0
 19 23  1  0  0  0  0
 19 24  1  6  0  0  0
 20 25  1  0  0  0  0
 21 26  1  0  0  0  0
 22 27  2  0  0  0  0
 23 28  2  0  0  0  0
 26 29  2  0  0  0  0
  6  8  1  0  0  0  0
 11 13  1  0  0  0  0
 18 19  1  0  0  0  0
 23 25  1  0  0  0  0
 27 29  1  0  0  0  0
M  END
>  <MolRegNo>
2057945

>  <m>
=

>  <Value>
10

>  <Unit>
nM

>  <Type>
Ki

>  <pValue>
8

>  <Ligand Efficiency>
0.38

>  <Binding Efficiency>
20.59

>  <Surface Efficiency>
23.43

>  <Assay Index>
985353

>  <Assay Category>


>  <Assay Organism>
Homo sapiens

>  <Target ID>
65

>  <Target Name>
Cytochrome P450 19A1

>  <Target Organism>
Homo sapiens

>  <Target Description>
Target is a single protein chain

>  <Sequence Accession>
P11511

>  <Reference>


>  <Pubmed ID>
26469743

>  <DOI>
10.1016/j.ejmech.2015.09.038

$$$$
2057946
Actelion Java MolfileCreator 1.0

 29 33  0  0  0  0  0  0  0  0999 V2000
    0.0000   -0.0000   -0.0000 O   0  0  0  0  0  0  0  0  0  0  0  0
    1.0570    0.6301   -0.0000 C   0  0  0  0  0  0  0  0  0  0  0  0
    2.3173   -0.1016   -0.0000 C   0  0  0  0  0  0  0  0  0  0  0  0
    1.0367    2.1344   -0.0000 C   0  0  0  0  0  0  0  0  0  0  0  0
    3.5776    0.6911   -0.0000 C   0  0  0  0  0  0  0  0  0  0  0  0
    2.2767    2.8865   -0.0000 C   0  0  0  0  0  0  0  0  0  0  0  0
    4.8582   -0.0407   -0.0000 C   0  0  0  0  0  0  0  0  0  0  0  0
    3.5573    2.1953   -0.0000 C   0  0  0  0  0  0  0  0  0  0  0  0
    6.1185    0.7521   -0.0000 C   0  0  0  0  0  0  0  0  0  0  0  0
    4.8582   -1.5652   -0.0000 C   0  0  0  0  0  0  0  0  0  0  0  0
    4.8176    2.9475   -0.0000 C   0  0  0  0  0  0  0  0  0  0  0  0
    3.5166    3.4556   -0.0000 C   0  0  0  0  0  0  0  0  0  0  0  0
    6.0779    2.2563   -0.0000 C   0  0  0  0  0  0  0  0  0  0  0  0
    6.1795   -2.2970   -0.0000 C   0  0  0  0  0  0  0  0  0  0  0  0
    4.7769    4.4720   -0.0000 C   0  0  0  0  0  0  0  0  0  0  0  0
    7.3382    3.0084   -0.0000 C   0  0  0  0  0  0  0  0  0  0  0  0
    6.1795   -3.8215   -0.0000 C   0  0  0  0  0  0  0  0  0  0  0  0
    6.0372    5.2444   -0.0000 C   0  0  0  0  0  0  0  0  0  0  0  0
    7.3178    4.5127   -0.0000 C   0  0  0  0  0  0  0  0  0  0  0  0
    9.8994    3.0084   -0.0000 C   0  0  0  0  0  0  0  0  0  0  0  0
    4.8379   -4.5736   -0.0000 C   0  0  0  0  0  0  0  0  0  0  0  0
    7.5008   -4.5533   -0.0000 C   0  0  0  0  0  0  0  0  0  0  0  0
    8.5781    5.3054   -0.0000 C   0  0  0  0  0  0  0  0  0  0  0  0
    7.2975    5.7730   -0.0000 C   0  0  0  0  0  0  0  0  0  0  0  0
    9.8791    4.5533   -0.0000 C   0  0  0  0  0  0  0  0  0  0  0  0
    4.8379   -6.0982   -0.0000 C   0  0  0  0  0  0  0  0  0  0  0  0
    7.5008   -6.0779   -0.0000 C   0  0  0  0  0  0  0  0  0  0  0  0
    8.5578    6.5657   -0.0000 O   0  0  0  0  0  0  0  0  0  0  0  0
    6.1592   -6.8300   -0.0000 C   0  0  0  0  0  0  0  0  0  0  0  0
  1  2  2  0  0  0  0
  2  3  1  0  0  0  0
  2  4  1  0  0  0  0
  3  5  2  0  0  0  0
  4  6  2  0  0  0  0
  5  7  1  0  0  0  0
  5  8  1  0  0  0  0
  7  9  2  0  0  0  0
  7 10  1  0  0  0  0
  8 11  1  0  0  0  0
  8 12  1  1  0  0  0
 13  9  1  6  0  0  0
 10 14  1  0  0  0  0
 11 15  1  1  0  0  0
 13 16  1  0  0  0  0
 14 17  1  0  0  0  0
 15 18  1  0  0  0  0
 16 19  1  0  0  0  0
 16 20  1  1  0  0  0
 17 21  2  0  0  0  0
 17 22  1  0  0  0  0
 19 23  1  0  0  0  0
 19 24  1  1  0  0  0
 20 25  1  0  0  0  0
 21 26  1  0  0  0  0
 22 27  2  0  0  0  0
 23 28  2  0  0  0  0
 26 29  2  0  0  0  0
  6  8  1  0  0  0  0
 11 13  1  0  0  0  0
 18 19  1  0  0  0  0
 23 25  1  0  0  0  0
 27 29  1  0  0  0  0
M  END
>  <MolRegNo>
2057946

>  <m>
=

>  <Value>
8.5

>  <Unit>
nM

>  <Type>
Ki

>  <pValue>
8.07

>  <Ligand Efficiency>
0.38

>  <Binding Efficiency>
20.88

>  <Surface Efficiency>
23.64

>  <Assay Index>
985353

>  <Assay Category>


>  <Assay Organism>
Homo sapiens

>  <Target ID>
65

>  <Target Name>
Cytochrome P450 19A1

>  <Target Organism>
Homo sapiens

>  <Target Description>
Target is a single protein chain

>  <Sequence Accession>
P11511

>  <Reference>


>  <Pubmed ID>
26469743

>  <DOI>
10.1016/j.ejmech.2015.09.038

$$$$
2057947
Actelion Java MolfileCreator 1.0

 29 32  0  0  0  0  0  0  0  0999 V2000
    0.0000   -0.0000   -0.0000 O   0  0  0  0  0  0  0  0  0  0  0  0
    1.0689    0.6372   -0.0000 C   0  0  0  0  0  0  0  0  0  0  0  0
    2.3433   -0.1028   -0.0000 C   0  0  0  0  0  0  0  0  0  0  0  0
    1.0483    2.1583   -0.0000 C   0  0  0  0  0  0  0  0  0  0  0  0
    3.6177    0.6989   -0.0000 C   0  0  0  0  0  0  0  0  0  0  0  0
    2.3022    2.9188   -0.0000 C   0  0  0  0  0  0  0  0  0  0  0  0
    3.5972    2.2200   -0.0000 C   0  0  0  0  0  0  0  0  0  0  0  0
    4.9127   -0.0411   -0.0000 C   0  0  0  0  0  0  0  0  0  0  0  0
    4.8716    2.9805   -0.0000 C   0  0  0  0  0  0  0  0  0  0  0  0
    3.5560    3.4944   -0.0000 C   0  0  0  0  0  0  0  0  0  0  0  0
    4.9127   -1.5827   -0.0000 O   0  0  0  0  0  0  0  0  0  0  0  0
    6.1871    0.7605   -0.0000 C   0  0  0  0  0  0  0  0  0  0  0  0
    6.1460    2.2816   -0.0000 C   0  0  0  0  0  0  0  0  0  0  0  0
    4.8305    4.5221   -0.0000 C   0  0  0  0  0  0  0  0  0  0  0  0
    3.5560   -2.3433   -0.0000 C   0  0  0  0  0  0  0  0  0  0  0  0
    7.4204    3.0422   -0.0000 C   0  0  0  0  0  0  0  0  0  0  0  0
    6.1049    5.3032   -0.0000 C   0  0  0  0  0  0  0  0  0  0  0  0
    2.4461   -1.7061   -0.0000 O   0  0  0  0  0  0  0  0  0  0  0  0
    3.5560   -3.8849   -0.0000 C   0  0  0  0  0  0  0  0  0  0  0  0
    7.3999    4.5633   -0.0000 C   0  0  0  0  0  0  0  0  0  0  0  0
   10.0104    3.0422   -0.0000 C   0  0  0  0  0  0  0  0  0  0  0  0
    2.1994   -4.6455   -0.0000 C   0  0  0  0  0  0  0  0  0  0  0  0
    8.6743    5.3649   -0.0000 C   0  0  0  0  0  0  0  0  0  0  0  0
    7.3793    5.8377   -0.0000 C   0  0  0  0  0  0  0  0  0  0  0  0
    9.9898    4.6044   -0.0000 C   0  0  0  0  0  0  0  0  0  0  0  0
    2.1994   -6.1871   -0.0000 C   0  0  0  0  0  0  0  0  0  0  0  0
    8.6537    6.6393   -0.0000 O   0  0  0  0  0  0  0  0  0  0  0  0
    0.8428   -6.9477   -0.0000 C   0  0  0  0  0  0  0  0  0  0  0  0
    0.8222   -8.1810   -0.0000 C   0  0  0  0  0  0  0  0  0  0  0  0
  1  2  2  0  0  0  0
  2  3  1  0  0  0  0
  2  4  1  0  0  0  0
  3  5  2  0  0  0  0
  4  6  1  0  0  0  0
  5  7  1  0  0  0  0
  5  8  1  0  0  0  0
  7  9  1  0  0  0  0
  7 10  1  6  0  0  0
  8 11  1  1  0  0  0
  8 12  1  0  0  0  0
  9 13  1  0  0  0  0
  9 14  1  6  0  0  0
 11 15  1  0  0  0  0
 13 16  1  0  0  0  0
 14 17  1  0  0  0  0
 15 18  2  0  0  0  0
 15 19  1  0  0  0  0
 16 20  1  0  0  0  0
 16 21  1  6  0  0  0
 19 22  1  0  0  0  0
 20 23  1  0  0  0  0
 20 24  1  6  0  0  0
 21 25  1  0  0  0  0
 22 26  1  0  0  0  0
 23 27  2  0  0  0  0
 26 28  1  0  0  0  0
 28 29  1  0  0  0  0
  6  7  1  0  0  0  0
 13 12  1  1  0  0  0
 17 20  1  0  0  0  0
 23 25  1  0  0  0  0
M  END
>  <MolRegNo>
2057947

>  <m>
=

>  <Value>
7

>  <Unit>
nM

>  <Type>
Ki

>  <pValue>
8.15

>  <Ligand Efficiency>
0.38

>  <Binding Efficiency>
20.36

>  <Surface Efficiency>
13.49

>  <Assay Index>
985353

>  <Assay Category>


>  <Assay Organism>
Homo sapiens

>  <Target ID>
65

>  <Target Name>
Cytochrome P450 19A1

>  <Target Organism>
Homo sapiens

>  <Target Description>
Target is a single protein chain

>  <Sequence Accession>
P11511

>  <Reference>


>  <Pubmed ID>
26469743

>  <DOI>
10.1016/j.ejmech.2015.09.038

$$$$
2057948
Actelion Java MolfileCreator 1.0

 29 33  0  0  0  0  0  0  0  0999 V2000
    0.0000   -0.0000   -0.0000 O   0  0  0  0  0  0  0  0  0  0  0  0
    1.0564    0.6298   -0.0000 C   0  0  0  0  0  0  0  0  0  0  0  0
    2.3160   -0.1016   -0.0000 C   0  0  0  0  0  0  0  0  0  0  0  0
    1.0361    2.1332   -0.0000 C   0  0  0  0  0  0  0  0  0  0  0  0
    3.5756    0.6907   -0.0000 C   0  0  0  0  0  0  0  0  0  0  0  0
    2.2754    2.8849   -0.0000 C   0  0  0  0  0  0  0  0  0  0  0  0
    3.5553    2.1941   -0.0000 C   0  0  0  0  0  0  0  0  0  0  0  0
    4.8555   -0.0406   -0.0000 C   0  0  0  0  0  0  0  0  0  0  0  0
    4.8149    2.9458   -0.0000 C   0  0  0  0  0  0  0  0  0  0  0  0
    3.5147    3.4537   -0.0000 C   0  0  0  0  0  0  0  0  0  0  0  0
    4.8555   -1.5643   -0.0000 O   0  0  0  0  0  0  0  0  0  0  0  0
    6.1151    0.7517   -0.0000 C   0  0  0  0  0  0  0  0  0  0  0  0
    6.0745    2.2551   -0.0000 C   0  0  0  0  0  0  0  0  0  0  0  0
    4.7742    4.4695   -0.0000 C   0  0  0  0  0  0  0  0  0  0  0  0
    3.5147   -2.3160   -0.0000 C   0  0  0  0  0  0  0  0  0  0  0  0
    7.3341    3.0068   -0.0000 C   0  0  0  0  0  0  0  0  0  0  0  0
    6.0338    5.2415   -0.0000 C   0  0  0  0  0  0  0  0  0  0  0  0
    3.5147   -3.8397   -0.0000 C   0  0  0  0  0  0  0  0  0  0  0  0
    7.3137    4.5101   -0.0000 C   0  0  0  0  0  0  0  0  0  0  0  0
    9.8939    3.0068   -0.0000 C   0  0  0  0  0  0  0  0  0  0  0  0
    4.8352   -4.5711   -0.0000 C   0  0  0  0  0  0  0  0  0  0  0  0
    2.1738   -4.5914   -0.0000 C   0  0  0  0  0  0  0  0  0  0  0  0
    8.5733    5.3025   -0.0000 C   0  0  0  0  0  0  0  0  0  0  0  0
    7.2934    5.7697   -0.0000 C   0  0  0  0  0  0  0  0  0  0  0  0
    9.8736    4.5508   -0.0000 C   0  0  0  0  0  0  0  0  0  0  0  0
    4.8352   -6.0948   -0.0000 C   0  0  0  0  0  0  0  0  0  0  0  0
    2.1738   -6.1151   -0.0000 C   0  0  0  0  0  0  0  0  0  0  0  0
    8.5530    6.5621   -0.0000 O   0  0  0  0  0  0  0  0  0  0  0  0
    3.4943   -6.8465   -0.0000 C   0  0  0  0  0  0  0  0  0  0  0  0
  1  2  2  0  0  0  0
  2  3  1  0  0  0  0
  2  4  1  0  0  0  0
  3  5  2  0  0  0  0
  4  6  1  0  0  0  0
  5  7  1  0  0  0  0
  5  8  1  0  0  0  0
  7  9  1  0  0  0  0
  7 10  1  6  0  0  0
  8 11  1  1  0  0  0
  8 12  1  0  0  0  0
  9 13  1  0  0  0  0
  9 14  1  6  0  0  0
 11 15  1  0  0  0  0
 13 16  1  0  0  0  0
 14 17  1  0  0  0  0
 15 18  1  0  0  0  0
 16 19  1  0  0  0  0
 16 20  1  6  0  0  0
 18 21  2  0  0  0  0
 18 22  1  0  0  0  0
 19 23  1  0  0  0  0
 19 24  1  6  0  0  0
 20 25  1  0  0  0  0
 21 26  1  0  0  0  0
 22 27  2  0  0  0  0
 23 28  2  0  0  0  0
 26 29  2  0  0  0  0
  6  7  1  0  0  0  0
 13 12  1  1  0  0  0
 17 19  1  0  0  0  0
 23 25  1  0  0  0  0
 27 29  1  0  0  0  0
M  END
>  <MolRegNo>
2057948

>  <m>
=

>  <Value>
7

>  <Unit>
nM

>  <Type>
Ki

>  <pValue>
8.15

>  <Ligand Efficiency>
0.38

>  <Binding Efficiency>
20.77

>  <Surface Efficiency>
18.8

>  <Assay Index>
985353

>  <Assay Category>


>  <Assay Organism>
Homo sapiens

>  <Target ID>
65

>  <Target Name>
Cytochrome P450 19A1

>  <Target Organism>
Homo sapiens

>  <Target Description>
Target is a single protein chain

>  <Sequence Accession>
P11511

>  <Reference>


>  <Pubmed ID>
26469743

>  <DOI>
10.1016/j.ejmech.2015.09.038

$$$$
2057949
Actelion Java MolfileCreator 1.0

 24 27  0  0  0  0  0  0  0  0999 V2000
    0.0000   -0.0000   -0.0000 Br  0  0  0  0  0  0  0  0  0  0  0  0
   -0.0413    1.2804   -0.0000 C   0  0  0  0  0  0  0  0  0  0  0  0
   -1.3836    2.0651   -0.0000 C   0  0  0  0  0  0  0  0  0  0  0  0
    1.2391    2.0858   -0.0000 C   0  0  0  0  0  0  0  0  0  0  0  0
   -2.7053    1.3010   -0.0000 C   0  0  0  0  0  0  0  0  0  0  0  0
   -1.4043    3.5933   -0.0000 C   0  0  0  0  0  0  0  0  0  0  0  0
    1.1978    3.6140   -0.0000 C   0  0  0  0  0  0  0  0  0  0  0  0
   -4.0270    2.0858   -0.0000 C   0  0  0  0  0  0  0  0  0  0  0  0
   -0.1239    4.3574   -0.0000 C   0  0  0  0  0  0  0  0  0  0  0  0
   -2.7466    4.3368   -0.0000 C   0  0  0  0  0  0  0  0  0  0  0  0
   -1.4456    4.8737   -0.0000 C   0  0  0  0  0  0  0  0  0  0  0  0
    2.4782    4.3781   -0.0000 C   0  0  0  0  0  0  0  0  0  0  0  0
   -5.1422    1.4869   -0.0000 O   0  0  0  0  0  0  0  0  0  0  0  0
   -4.0476    3.6140   -0.0000 C   0  0  0  0  0  0  0  0  0  0  0  0
   -0.1652    5.9063   -0.0000 C   0  0  0  0  0  0  0  0  0  0  0  0
    2.4575    5.9063   -0.0000 C   0  0  0  0  0  0  0  0  0  0  0  0
    5.0802    4.3781   -0.0000 C   0  0  0  0  0  0  0  0  0  0  0  0
   -4.0476    4.8737   -0.0000 C   0  0  0  0  0  0  0  0  0  0  0  0
   -5.1422    2.9738   -0.0000 C   0  0  0  0  0  0  0  0  0  0  0  0
    1.1152    6.6910   -0.0000 C   0  0  0  0  0  0  0  0  0  0  0  0
    3.7379    6.7117   -0.0000 C   0  0  0  0  0  0  0  0  0  0  0  0
    2.4368    7.1866   -0.0000 C   0  0  0  0  0  0  0  0  0  0  0  0
    5.0596    5.9476   -0.0000 C   0  0  0  0  0  0  0  0  0  0  0  0
    3.7172    7.9920   -0.0000 O   0  0  0  0  0  0  0  0  0  0  0  0
  2  1  1  1  0  0  0
  2  3  1  0  0  0  0
  2  4  1  0  0  0  0
  3  5  2  0  0  0  0
  3  6  1  0  0  0  0
  7  4  1  1  0  0  0
  5  8  1  0  0  0  0
  6  9  1  0  0  0  0
  6 10  1  0  0  0  0
  6 11  1  6  0  0  0
  7 12  1  0  0  0  0
  8 13  2  0  0  0  0
  8 14  1  0  0  0  0
  9 15  1  6  0  0  0
 12 16  1  0  0  0  0
 12 17  1  6  0  0  0
 14 18  1  0  0  0  0
 14 19  1  0  0  0  0
 15 20  1  0  0  0  0
 16 21  1  0  0  0  0
 16 22  1  6  0  0  0
 17 23  1  0  0  0  0
 21 24  2  0  0  0  0
  7  9  1  0  0  0  0
 10 14  1  0  0  0  0
 16 20  1  0  0  0  0
 21 23  1  0  0  0  0
M  END
>  <MolRegNo>
2057949

>  <m>
=

>  <Value>
14

>  <Unit>
nM

>  <Type>
Ki

>  <pValue>
7.85

>  <Ligand Efficiency>
0.45

>  <Binding Efficiency>
19.97

>  <Surface Efficiency>
23

>  <Assay Index>
985353

>  <Assay Category>


>  <Assay Organism>
Homo sapiens

>  <Target ID>
65

>  <Target Name>
Cytochrome P450 19A1

>  <Target Organism>
Homo sapiens

>  <Target Description>
Target is a single protein chain

>  <Sequence Accession>
P11511

>  <Reference>


>  <Pubmed ID>
26469743

>  <DOI>
10.1016/j.ejmech.2015.09.038

$$$$
2057950
Actelion Java MolfileCreator 1.0

 24 27  0  0  0  0  0  0  0  0999 V2000
    0.0000   -0.0000   -0.0000 Br  0  0  0  0  0  0  0  0  0  0  0  0
   -0.0413    1.2804   -0.0000 C   0  0  0  0  0  0  0  0  0  0  0  0
   -1.3836    2.0651   -0.0000 C   0  0  0  0  0  0  0  0  0  0  0  0
    1.2391    2.0858   -0.0000 C   0  0  0  0  0  0  0  0  0  0  0  0
   -2.7053    1.3010   -0.0000 C   0  0  0  0  0  0  0  0  0  0  0  0
   -1.4043    3.5933   -0.0000 C   0  0  0  0  0  0  0  0  0  0  0  0
    1.1978    3.6140   -0.0000 C   0  0  0  0  0  0  0  0  0  0  0  0
   -4.0270    2.0858   -0.0000 C   0  0  0  0  0  0  0  0  0  0  0  0
   -0.1239    4.3574   -0.0000 C   0  0  0  0  0  0  0  0  0  0  0  0
   -2.7466    4.3368   -0.0000 C   0  0  0  0  0  0  0  0  0  0  0  0
   -1.4456    4.8737   -0.0000 C   0  0  0  0  0  0  0  0  0  0  0  0
    2.4782    4.3781   -0.0000 C   0  0  0  0  0  0  0  0  0  0  0  0
   -5.1422    1.4869   -0.0000 O   0  0  0  0  0  0  0  0  0  0  0  0
   -4.0476    3.6140   -0.0000 C   0  0  0  0  0  0  0  0  0  0  0  0
   -0.1652    5.9063   -0.0000 C   0  0  0  0  0  0  0  0  0  0  0  0
    2.4575    5.9063   -0.0000 C   0  0  0  0  0  0  0  0  0  0  0  0
    5.0802    4.3781   -0.0000 C   0  0  0  0  0  0  0  0  0  0  0  0
   -4.0476    4.8737   -0.0000 C   0  0  0  0  0  0  0  0  0  0  0  0
   -5.1422    2.9738   -0.0000 C   0  0  0  0  0  0  0  0  0  0  0  0
    1.1152    6.6910   -0.0000 C   0  0  0  0  0  0  0  0  0  0  0  0
    3.7379    6.7117   -0.0000 C   0  0  0  0  0  0  0  0  0  0  0  0
    2.4368    7.1866   -0.0000 C   0  0  0  0  0  0  0  0  0  0  0  0
    5.0596    5.9476   -0.0000 C   0  0  0  0  0  0  0  0  0  0  0  0
    3.7172    7.9920   -0.0000 O   0  0  0  0  0  0  0  0  0  0  0  0
  2  1  1  6  0  0  0
  2  3  1  0  0  0  0
  2  4  1  0  0  0  0
  3  5  2  0  0  0  0
  3  6  1  0  0  0  0
  7  4  1  1  0  0  0
  5  8  1  0  0  0  0
  6  9  1  0  0  0  0
  6 10  1  0  0  0  0
  6 11  1  6  0  0  0
  7 12  1  0  0  0  0
  8 13  2  0  0  0  0
  8 14  1  0  0  0  0
  9 15  1  6  0  0  0
 12 16  1  0  0  0  0
 12 17  1  6  0  0  0
 14 18  1  0  0  0  0
 14 19  1  0  0  0  0
 15 20  1  0  0  0  0
 16 21  1  0  0  0  0
 16 22  1  6  0  0  0
 17 23  1  0  0  0  0
 21 24  2  0  0  0  0
  7  9  1  0  0  0  0
 10 14  1  0  0  0  0
 16 20  1  0  0  0  0
 21 23  1  0  0  0  0
M  END
>  <MolRegNo>
2057950

>  <m>
=

>  <Value>
10

>  <Unit>
nM

>  <Type>
Ki

>  <pValue>
8

>  <Ligand Efficiency>
0.46

>  <Binding Efficiency>
20.34

>  <Surface Efficiency>
23.43

>  <Assay Index>
985353

>  <Assay Category>


>  <Assay Organism>
Homo sapiens

>  <Target ID>
65

>  <Target Name>
Cytochrome P450 19A1

>  <Target Organism>
Homo sapiens

>  <Target Description>
Target is a single protein chain

>  <Sequence Accession>
P11511

>  <Reference>


>  <Pubmed ID>
26469743

>  <DOI>
10.1016/j.ejmech.2015.09.038

$$$$
2057951
Actelion Java MolfileCreator 1.0

 28 32  0  0  0  0  0  0  0  0999 V2000
    0.0000   -0.0000   -0.0000 O   0  0  0  0  0  0  0  0  0  0  0  0
    1.0635    0.6340   -0.0000 C   0  0  0  0  0  0  0  0  0  0  0  0
    2.3316   -0.1023   -0.0000 C   0  0  0  0  0  0  0  0  0  0  0  0
    1.0431    2.1476   -0.0000 C   0  0  0  0  0  0  0  0  0  0  0  0
    3.5997    0.6954   -0.0000 C   0  0  0  0  0  0  0  0  0  0  0  0
    2.2907    2.9043   -0.0000 C   0  0  0  0  0  0  0  0  0  0  0  0
    4.8882   -0.0409   -0.0000 C   0  0  0  0  0  0  0  0  0  0  0  0
    3.5793    2.2089   -0.0000 C   0  0  0  0  0  0  0  0  0  0  0  0
    4.8882   -1.5749   -0.0000 C   0  0  0  0  0  0  0  0  0  0  0  0
    6.1563    0.7568   -0.0000 C   0  0  0  0  0  0  0  0  0  0  0  0
    4.8473    2.9657   -0.0000 C   0  0  0  0  0  0  0  0  0  0  0  0
    3.5383    3.4770   -0.0000 C   0  0  0  0  0  0  0  0  0  0  0  0
    3.5179   -2.3316   -0.0000 C   0  0  0  0  0  0  0  0  0  0  0  0
    6.1972   -2.3316   -0.0000 C   0  0  0  0  0  0  0  0  0  0  0  0
    6.1154    2.2703   -0.0000 C   0  0  0  0  0  0  0  0  0  0  0  0
    4.8064    4.4996   -0.0000 C   0  0  0  0  0  0  0  0  0  0  0  0
    3.4974   -3.8656   -0.0000 C   0  0  0  0  0  0  0  0  0  0  0  0
    6.1768   -3.8656   -0.0000 C   0  0  0  0  0  0  0  0  0  0  0  0
    7.3835    3.0270   -0.0000 C   0  0  0  0  0  0  0  0  0  0  0  0
    6.0745    5.2768   -0.0000 C   0  0  0  0  0  0  0  0  0  0  0  0
    4.8064   -4.6223   -0.0000 C   0  0  0  0  0  0  0  0  0  0  0  0
    7.3630    4.5405   -0.0000 C   0  0  0  0  0  0  0  0  0  0  0  0
    9.9605    3.0270   -0.0000 C   0  0  0  0  0  0  0  0  0  0  0  0
    4.7860   -5.8495   -0.0000 O   0  0  0  0  0  0  0  0  0  0  0  0
    8.6311    5.3382   -0.0000 C   0  0  0  0  0  0  0  0  0  0  0  0
    7.3426    5.8086   -0.0000 C   0  0  0  0  0  0  0  0  0  0  0  0
    9.9401    4.5814   -0.0000 C   0  0  0  0  0  0  0  0  0  0  0  0
    8.6107    6.6063   -0.0000 O   0  0  0  0  0  0  0  0  0  0  0  0
  1  2  2  0  0  0  0
  2  3  1  0  0  0  0
  2  4  1  0  0  0  0
  3  5  2  0  0  0  0
  4  6  1  0  0  0  0
  5  7  1  0  0  0  0
  5  8  1  0  0  0  0
  7  9  1  0  0  0  0
  7 10  2  0  0  0  0
  8 11  1  0  0  0  0
  8 12  1  6  0  0  0
  9 13  2  0  0  0  0
  9 14  1  0  0  0  0
 15 10  1  1  0  0  0
 11 16  1  6  0  0  0
 13 17  1  0  0  0  0
 14 18  2  0  0  0  0
 15 19  1  0  0  0  0
 16 20  1  0  0  0  0
 17 21  2  0  0  0  0
 19 22  1  0  0  0  0
 19 23  1  6  0  0  0
 21 24  1  0  0  0  0
 22 25  1  0  0  0  0
 22 26  1  6  0  0  0
 23 27  1  0  0  0  0
 25 28  2  0  0  0  0
  6  8  1  0  0  0  0
 11 15  1  0  0  0  0
 18 21  1  0  0  0  0
 20 22  1  0  0  0  0
 25 27  1  0  0  0  0
M  END
>  <MolRegNo>
2057951

>  <m>
=

>  <Value>
23

>  <Unit>
nM

>  <Type>
Ki

>  <pValue>
7.64

>  <Ligand Efficiency>
0.37

>  <Binding Efficiency>
20.29

>  <Surface Efficiency>
14.05

>  <Assay Index>
985353

>  <Assay Category>


>  <Assay Organism>
Homo sapiens

>  <Target ID>
65

>  <Target Name>
Cytochrome P450 19A1

>  <Target Organism>
Homo sapiens

>  <Target Description>
Target is a single protein chain

>  <Sequence Accession>
P11511

>  <Reference>


>  <Pubmed ID>
26469743

>  <DOI>
10.1016/j.ejmech.2015.09.038

$$$$
2057952
Actelion Java MolfileCreator 1.0

 32 36  0  0  0  0  0  0  0  0999 V2000
    0.0000   -0.0000   -0.0000 S   0  0  0  0  0  0  0  0  0  0  0  0
   -0.0204   -1.2239   -0.0000 O   0  0  0  0  0  0  0  0  0  0  0  0
   -1.0811    0.6323   -0.0000 O   0  0  0  0  0  0  0  0  0  0  0  0
    1.3259    0.7955   -0.0000 O   0  0  0  0  0  0  0  0  0  0  0  0
   -1.0811   -0.5915   -0.0000 N   0  0  0  0  0  0  0  0  0  0  0  0
    1.3055    2.3662   -0.0000 C   0  0  0  0  0  0  0  0  0  0  0  0
   -0.0408    3.1617   -0.0000 C   0  0  0  0  0  0  0  0  0  0  0  0
    2.6314    3.1617   -0.0000 C   0  0  0  0  0  0  0  0  0  0  0  0
   -0.0612    4.7324   -0.0000 C   0  0  0  0  0  0  0  0  0  0  0  0
    2.6110    4.7324   -0.0000 C   0  0  0  0  0  0  0  0  0  0  0  0
    1.2647    5.5279   -0.0000 C   0  0  0  0  0  0  0  0  0  0  0  0
    1.2239    7.0985   -0.0000 C   0  0  0  0  0  0  0  0  0  0  0  0
   -0.1020    7.8737   -0.0000 C   0  0  0  0  0  0  0  0  0  0  0  0
    2.4886    7.8941   -0.0000 C   0  0  0  0  0  0  0  0  0  0  0  0
   -1.4075    7.1189   -0.0000 C   0  0  0  0  0  0  0  0  0  0  0  0
   -0.1224    9.3831   -0.0000 C   0  0  0  0  0  0  0  0  0  0  0  0
    2.4478    9.4035   -0.0000 C   0  0  0  0  0  0  0  0  0  0  0  0
   -2.7129    7.8941   -0.0000 C   0  0  0  0  0  0  0  0  0  0  0  0
    1.1423   10.1378   -0.0000 C   0  0  0  0  0  0  0  0  0  0  0  0
   -1.4483   10.1175   -0.0000 C   0  0  0  0  0  0  0  0  0  0  0  0
   -0.1632   10.6478   -0.0000 C   0  0  0  0  0  0  0  0  0  0  0  0
    3.7125   10.1582   -0.0000 C   0  0  0  0  0  0  0  0  0  0  0  0
   -3.8144    7.3025   -0.0000 O   0  0  0  0  0  0  0  0  0  0  0  0
   -2.7333    9.4035   -0.0000 C   0  0  0  0  0  0  0  0  0  0  0  0
    1.1015   11.6677   -0.0000 C   0  0  0  0  0  0  0  0  0  0  0  0
    3.6921   11.6677   -0.0000 C   0  0  0  0  0  0  0  0  0  0  0  0
    6.2826   10.1582   -0.0000 C   0  0  0  0  0  0  0  0  0  0  0  0
    2.3662   12.4428   -0.0000 C   0  0  0  0  0  0  0  0  0  0  0  0
    4.9567   12.4632   -0.0000 C   0  0  0  0  0  0  0  0  0  0  0  0
    3.6717   12.9324   -0.0000 C   0  0  0  0  0  0  0  0  0  0  0  0
    6.2622   11.7085   -0.0000 C   0  0  0  0  0  0  0  0  0  0  0  0
    4.9363   13.7279   -0.0000 O   0  0  0  0  0  0  0  0  0  0  0  0
  1  2  2  0  0  0  0
  1  3  2  0  0  0  0
  1  4  1  0  0  0  0
  1  5  1  0  0  0  0
  4  6  1  0  0  0  0
  6  7  2  0  0  0  0
  6  8  1  0  0  0  0
  7  9  1  0  0  0  0
  8 10  2  0  0  0  0
  9 11  2  0  0  0  0
 11 12  1  0  0  0  0
 12 13  1  0  0  0  0
 12 14  2  0  0  0  0
 13 15  2  0  0  0  0
 13 16  1  0  0  0  0
 17 14  1  1  0  0  0
 15 18  1  0  0  0  0
 16 19  1  0  0  0  0
 16 20  1  0  0  0  0
 16 21  1  6  0  0  0
 17 22  1  0  0  0  0
 18 23  2  0  0  0  0
 18 24  1  0  0  0  0
 19 25  1  6  0  0  0
 22 26  1  0  0  0  0
 22 27  1  6  0  0  0
 25 28  1  0  0  0  0
 26 29  1  0  0  0  0
 26 30  1  6  0  0  0
 27 31  1  0  0  0  0
 29 32  2  0  0  0  0
 10 11  1  0  0  0  0
 17 19  1  0  0  0  0
 20 24  1  0  0  0  0
 26 28  1  0  0  0  0
 29 31  1  0  0  0  0
M  END
>  <MolRegNo>
2057952

>  <m>
=

>  <Value>
30

>  <Unit>
nM

>  <Type>
Ki

>  <pValue>
7.52

>  <Ligand Efficiency>
0.32

>  <Binding Efficiency>
16.51

>  <Surface Efficiency>
7.27

>  <Assay Index>
985353

>  <Assay Category>


>  <Assay Organism>
Homo sapiens

>  <Target ID>
65

>  <Target Name>
Cytochrome P450 19A1

>  <Target Organism>
Homo sapiens

>  <Target Description>
Target is a single protein chain

>  <Sequence Accession>
P11511

>  <Reference>


>  <Pubmed ID>
26469743

>  <DOI>
10.1016/j.ejmech.2015.09.038

$$$$
2057953
Actelion Java MolfileCreator 1.0

 28 32  0  0  0  0  0  0  0  0999 V2000
    0.0000   -0.0000   -0.0000 O   0  0  0  0  0  0  0  0  0  0  0  0
    1.0635    0.6340   -0.0000 C   0  0  0  0  0  0  0  0  0  0  0  0
    2.3316   -0.1023   -0.0000 C   0  0  0  0  0  0  0  0  0  0  0  0
    1.0431    2.1476   -0.0000 C   0  0  0  0  0  0  0  0  0  0  0  0
    3.5997    0.6954   -0.0000 C   0  0  0  0  0  0  0  0  0  0  0  0
    2.2907    2.9043   -0.0000 C   0  0  0  0  0  0  0  0  0  0  0  0
    3.5793    2.2089   -0.0000 C   0  0  0  0  0  0  0  0  0  0  0  0
    4.8882   -0.0409   -0.0000 C   0  0  0  0  0  0  0  0  0  0  0  0
    4.8473    2.9657   -0.0000 C   0  0  0  0  0  0  0  0  0  0  0  0
    3.5383    3.4770   -0.0000 C   0  0  0  0  0  0  0  0  0  0  0  0
    4.8882   -1.5749   -0.0000 C   0  0  0  0  0  0  0  0  0  0  0  0
    6.1563    0.7568   -0.0000 C   0  0  0  0  0  0  0  0  0  0  0  0
    6.1154    2.2703   -0.0000 C   0  0  0  0  0  0  0  0  0  0  0  0
    4.8064    4.4996   -0.0000 C   0  0  0  0  0  0  0  0  0  0  0  0
    3.5179   -2.3316   -0.0000 C   0  0  0  0  0  0  0  0  0  0  0  0
    6.1972   -2.3316   -0.0000 C   0  0  0  0  0  0  0  0  0  0  0  0
    7.3835    3.0270   -0.0000 C   0  0  0  0  0  0  0  0  0  0  0  0
    6.0745    5.2768   -0.0000 C   0  0  0  0  0  0  0  0  0  0  0  0
    3.4974   -3.8656   -0.0000 C   0  0  0  0  0  0  0  0  0  0  0  0
    6.1768   -3.8656   -0.0000 C   0  0  0  0  0  0  0  0  0  0  0  0
    7.3630    4.5405   -0.0000 C   0  0  0  0  0  0  0  0  0  0  0  0
    9.9605    3.0270   -0.0000 C   0  0  0  0  0  0  0  0  0  0  0  0
    4.8064   -4.6223   -0.0000 C   0  0  0  0  0  0  0  0  0  0  0  0
    8.6311    5.3382   -0.0000 C   0  0  0  0  0  0  0  0  0  0  0  0
    7.3426    5.8086   -0.0000 C   0  0  0  0  0  0  0  0  0  0  0  0
    9.9401    4.5814   -0.0000 C   0  0  0  0  0  0  0  0  0  0  0  0
    4.7860   -5.8495   -0.0000 O   0  0  0  0  0  0  0  0  0  0  0  0
    8.6107    6.6063   -0.0000 O   0  0  0  0  0  0  0  0  0  0  0  0
  1  2  2  0  0  0  0
  2  3  1  0  0  0  0
  2  4  1  0  0  0  0
  3  5  2  0  0  0  0
  4  6  1  0  0  0  0
  5  7  1  0  0  0  0
  5  8  1  0  0  0  0
  7  9  1  0  0  0  0
  7 10  1  6  0  0  0
  8 11  1  1  0  0  0
  8 12  1  0  0  0  0
  9 13  1  0  0  0  0
  9 14  1  6  0  0  0
 11 15  2  0  0  0  0
 11 16  1  0  0  0  0
 13 17  1  0  0  0  0
 14 18  1  0  0  0  0
 15 19  1  0  0  0  0
 16 20  2  0  0  0  0
 17 21  1  0  0  0  0
 17 22  1  6  0  0  0
 19 23  2  0  0  0  0
 21 24  1  0  0  0  0
 21 25  1  6  0  0  0
 22 26  1  0  0  0  0
 23 27  1  0  0  0  0
 24 28  2  0  0  0  0
  6  7  1  0  0  0  0
 13 12  1  1  0  0  0
 18 21  1  0  0  0  0
 20 23  1  0  0  0  0
 24 26  1  0  0  0  0
M  END
>  <MolRegNo>
2057953

>  <m>
=

>  <Value>
27

>  <Unit>
nM

>  <Type>
Ki

>  <pValue>
7.57

>  <Ligand Efficiency>
0.37

>  <Binding Efficiency>
20

>  <Surface Efficiency>
13.92

>  <Assay Index>
985353

>  <Assay Category>


>  <Assay Organism>
Homo sapiens

>  <Target ID>
65

>  <Target Name>
Cytochrome P450 19A1

>  <Target Organism>
Homo sapiens

>  <Target Description>
Target is a single protein chain

>  <Sequence Accession>
P11511

>  <Reference>


>  <Pubmed ID>
26469743

>  <DOI>
10.1016/j.ejmech.2015.09.038

$$$$
2057954
Actelion Java MolfileCreator 1.0

 32 36  0  0  0  0  0  0  0  0999 V2000
    0.0000   -0.0000   -0.0000 S   0  0  0  0  0  0  0  0  0  0  0  0
   -0.0204   -1.2239   -0.0000 O   0  0  0  0  0  0  0  0  0  0  0  0
   -1.0811    0.6323   -0.0000 O   0  0  0  0  0  0  0  0  0  0  0  0
    1.3259    0.7955   -0.0000 O   0  0  0  0  0  0  0  0  0  0  0  0
   -1.0811   -0.5915   -0.0000 N   0  0  0  0  0  0  0  0  0  0  0  0
    1.3055    2.3662   -0.0000 C   0  0  0  0  0  0  0  0  0  0  0  0
   -0.0408    3.1617   -0.0000 C   0  0  0  0  0  0  0  0  0  0  0  0
    2.6314    3.1617   -0.0000 C   0  0  0  0  0  0  0  0  0  0  0  0
   -0.0612    4.7324   -0.0000 C   0  0  0  0  0  0  0  0  0  0  0  0
    2.6110    4.7324   -0.0000 C   0  0  0  0  0  0  0  0  0  0  0  0
    1.2647    5.5279   -0.0000 C   0  0  0  0  0  0  0  0  0  0  0  0
    1.2239    7.0985   -0.0000 C   0  0  0  0  0  0  0  0  0  0  0  0
   -0.1020    7.8737   -0.0000 C   0  0  0  0  0  0  0  0  0  0  0  0
    2.4886    7.8941   -0.0000 C   0  0  0  0  0  0  0  0  0  0  0  0
   -1.4075    7.1189   -0.0000 C   0  0  0  0  0  0  0  0  0  0  0  0
   -0.1224    9.3831   -0.0000 C   0  0  0  0  0  0  0  0  0  0  0  0
    2.4478    9.4035   -0.0000 C   0  0  0  0  0  0  0  0  0  0  0  0
   -2.7129    7.8941   -0.0000 C   0  0  0  0  0  0  0  0  0  0  0  0
    1.1423   10.1378   -0.0000 C   0  0  0  0  0  0  0  0  0  0  0  0
   -1.4483   10.1175   -0.0000 C   0  0  0  0  0  0  0  0  0  0  0  0
   -0.1632   10.6478   -0.0000 C   0  0  0  0  0  0  0  0  0  0  0  0
    3.7125   10.1582   -0.0000 C   0  0  0  0  0  0  0  0  0  0  0  0
   -3.8144    7.3025   -0.0000 O   0  0  0  0  0  0  0  0  0  0  0  0
   -2.7333    9.4035   -0.0000 C   0  0  0  0  0  0  0  0  0  0  0  0
    1.1015   11.6677   -0.0000 C   0  0  0  0  0  0  0  0  0  0  0  0
    3.6921   11.6677   -0.0000 C   0  0  0  0  0  0  0  0  0  0  0  0
    6.2826   10.1582   -0.0000 C   0  0  0  0  0  0  0  0  0  0  0  0
    2.3662   12.4428   -0.0000 C   0  0  0  0  0  0  0  0  0  0  0  0
    4.9567   12.4632   -0.0000 C   0  0  0  0  0  0  0  0  0  0  0  0
    3.6717   12.9324   -0.0000 C   0  0  0  0  0  0  0  0  0  0  0  0
    6.2622   11.7085   -0.0000 C   0  0  0  0  0  0  0  0  0  0  0  0
    4.9363   13.7279   -0.0000 O   0  0  0  0  0  0  0  0  0  0  0  0
  1  2  2  0  0  0  0
  1  3  2  0  0  0  0
  1  4  1  0  0  0  0
  1  5  1  0  0  0  0
  4  6  1  0  0  0  0
  6  7  2  0  0  0  0
  6  8  1  0  0  0  0
  7  9  1  0  0  0  0
  8 10  2  0  0  0  0
  9 11  2  0  0  0  0
 12 11  1  1  0  0  0
 12 13  1  0  0  0  0
 12 14  1  0  0  0  0
 13 15  2  0  0  0  0
 13 16  1  0  0  0  0
 17 14  1  1  0  0  0
 15 18  1  0  0  0  0
 16 19  1  0  0  0  0
 16 20  1  0  0  0  0
 16 21  1  6  0  0  0
 17 22  1  0  0  0  0
 18 23  2  0  0  0  0
 18 24  1  0  0  0  0
 19 25  1  6  0  0  0
 22 26  1  0  0  0  0
 22 27  1  6  0  0  0
 25 28  1  0  0  0  0
 26 29  1  0  0  0  0
 26 30  1  6  0  0  0
 27 31  1  0  0  0  0
 29 32  2  0  0  0  0
 10 11  1  0  0  0  0
 17 19  1  0  0  0  0
 20 24  1  0  0  0  0
 26 28  1  0  0  0  0
 29 31  1  0  0  0  0
M  END
>  <MolRegNo>
2057954

>  <m>
=

>  <Value>
39

>  <Unit>
nM

>  <Type>
Ki

>  <pValue>
7.41

>  <Ligand Efficiency>
0.32

>  <Binding Efficiency>
16.19

>  <Surface Efficiency>
7.16

>  <Assay Index>
985353

>  <Assay Category>


>  <Assay Organism>
Homo sapiens

>  <Target ID>
65

>  <Target Name>
Cytochrome P450 19A1

>  <Target Organism>
Homo sapiens

>  <Target Description>
Target is a single protein chain

>  <Sequence Accession>
P11511

>  <Reference>


>  <Pubmed ID>
26469743

>  <DOI>
10.1016/j.ejmech.2015.09.038

$$$$
2057955
Actelion Java MolfileCreator 1.0

 28 32  0  0  0  0  0  0  0  0999 V2000
    0.0000   -0.0000   -0.0000 O   0  0  0  0  0  0  0  0  0  0  0  0
    1.0635    0.6340   -0.0000 C   0  0  0  0  0  0  0  0  0  0  0  0
    2.3316   -0.1023   -0.0000 C   0  0  0  0  0  0  0  0  0  0  0  0
    1.0431    2.1476   -0.0000 C   0  0  0  0  0  0  0  0  0  0  0  0
    3.5997    0.6954   -0.0000 C   0  0  0  0  0  0  0  0  0  0  0  0
    2.2907    2.9043   -0.0000 C   0  0  0  0  0  0  0  0  0  0  0  0
    4.8882   -0.0409   -0.0000 C   0  0  0  0  0  0  0  0  0  0  0  0
    3.5793    2.2089   -0.0000 C   0  0  0  0  0  0  0  0  0  0  0  0
    4.8882   -1.5749   -0.0000 C   0  0  0  0  0  0  0  0  0  0  0  0
    6.1563    0.7568   -0.0000 C   0  0  0  0  0  0  0  0  0  0  0  0
    4.8473    2.9657   -0.0000 C   0  0  0  0  0  0  0  0  0  0  0  0
    3.5383    3.4770   -0.0000 C   0  0  0  0  0  0  0  0  0  0  0  0
    3.5179   -2.3316   -0.0000 C   0  0  0  0  0  0  0  0  0  0  0  0
    6.1972   -2.3316   -0.0000 C   0  0  0  0  0  0  0  0  0  0  0  0
    6.1154    2.2703   -0.0000 C   0  0  0  0  0  0  0  0  0  0  0  0
    4.8064    4.4996   -0.0000 C   0  0  0  0  0  0  0  0  0  0  0  0
    3.4974   -3.8656   -0.0000 C   0  0  0  0  0  0  0  0  0  0  0  0
    6.1768   -3.8656   -0.0000 C   0  0  0  0  0  0  0  0  0  0  0  0
    7.3835    3.0270   -0.0000 C   0  0  0  0  0  0  0  0  0  0  0  0
    6.0745    5.2768   -0.0000 C   0  0  0  0  0  0  0  0  0  0  0  0
    4.8064   -4.6223   -0.0000 C   0  0  0  0  0  0  0  0  0  0  0  0
    7.3630    4.5405   -0.0000 C   0  0  0  0  0  0  0  0  0  0  0  0
    9.9605    3.0270   -0.0000 C   0  0  0  0  0  0  0  0  0  0  0  0
    4.7860   -5.8495   -0.0000 O   0  0  0  0  0  0  0  0  0  0  0  0
    8.6311    5.3382   -0.0000 C   0  0  0  0  0  0  0  0  0  0  0  0
    7.3426    5.8086   -0.0000 C   0  0  0  0  0  0  0  0  0  0  0  0
    9.9401    4.5814   -0.0000 C   0  0  0  0  0  0  0  0  0  0  0  0
    8.6107    6.6063   -0.0000 O   0  0  0  0  0  0  0  0  0  0  0  0
  1  2  2  0  0  0  0
  2  3  1  0  0  0  0
  2  4  1  0  0  0  0
  3  5  2  0  0  0  0
  4  6  2  0  0  0  0
  5  7  1  0  0  0  0
  5  8  1  0  0  0  0
  7  9  1  0  0  0  0
  7 10  2  0  0  0  0
  8 11  1  0  0  0  0
  8 12  1  1  0  0  0
  9 13  2  0  0  0  0
  9 14  1  0  0  0  0
 15 10  1  6  0  0  0
 11 16  1  1  0  0  0
 13 17  1  0  0  0  0
 14 18  2  0  0  0  0
 15 19  1  0  0  0  0
 16 20  1  0  0  0  0
 17 21  2  0  0  0  0
 19 22  1  0  0  0  0
 19 23  1  1  0  0  0
 21 24  1  0  0  0  0
 22 25  1  0  0  0  0
 22 26  1  1  0  0  0
 23 27  1  0  0  0  0
 25 28  2  0  0  0  0
  6  8  1  0  0  0  0
 11 15  1  0  0  0  0
 18 21  1  0  0  0  0
 20 22  1  0  0  0  0
 25 27  1  0  0  0  0
M  END
>  <MolRegNo>
2057955

>  <m>
=

>  <Value>
75

>  <Unit>
nM

>  <Type>
Ki

>  <pValue>
7.12

>  <Ligand Efficiency>
0.35

>  <Binding Efficiency>
19.03

>  <Surface Efficiency>
13.1

>  <Assay Index>
985353

>  <Assay Category>


>  <Assay Organism>
Homo sapiens

>  <Target ID>
65

>  <Target Name>
Cytochrome P450 19A1

>  <Target Organism>
Homo sapiens

>  <Target Description>
Target is a single protein chain

>  <Sequence Accession>
P11511

>  <Reference>


>  <Pubmed ID>
26469743

>  <DOI>
10.1016/j.ejmech.2015.09.038

$$$$
2057956
Actelion Java MolfileCreator 1.0

 32 36  0  0  0  0  0  0  0  0999 V2000
    0.0000   -0.0000   -0.0000 S   0  0  0  0  0  0  0  0  0  0  0  0
   -0.0204   -1.2239   -0.0000 O   0  0  0  0  0  0  0  0  0  0  0  0
   -1.0811    0.6323   -0.0000 O   0  0  0  0  0  0  0  0  0  0  0  0
    1.3259    0.7955   -0.0000 O   0  0  0  0  0  0  0  0  0  0  0  0
   -1.0811   -0.5915   -0.0000 N   0  0  0  0  0  0  0  0  0  0  0  0
    1.3055    2.3662   -0.0000 C   0  0  0  0  0  0  0  0  0  0  0  0
   -0.0408    3.1617   -0.0000 C   0  0  0  0  0  0  0  0  0  0  0  0
    2.6314    3.1617   -0.0000 C   0  0  0  0  0  0  0  0  0  0  0  0
   -0.0612    4.7324   -0.0000 C   0  0  0  0  0  0  0  0  0  0  0  0
    2.6110    4.7324   -0.0000 C   0  0  0  0  0  0  0  0  0  0  0  0
    1.2647    5.5279   -0.0000 C   0  0  0  0  0  0  0  0  0  0  0  0
    1.2239    7.0985   -0.0000 C   0  0  0  0  0  0  0  0  0  0  0  0
   -0.1020    7.8737   -0.0000 C   0  0  0  0  0  0  0  0  0  0  0  0
    2.4886    7.8941   -0.0000 C   0  0  0  0  0  0  0  0  0  0  0  0
   -1.4075    7.1189   -0.0000 C   0  0  0  0  0  0  0  0  0  0  0  0
   -0.1224    9.3831   -0.0000 C   0  0  0  0  0  0  0  0  0  0  0  0
    2.4478    9.4035   -0.0000 C   0  0  0  0  0  0  0  0  0  0  0  0
   -2.7129    7.8941   -0.0000 C   0  0  0  0  0  0  0  0  0  0  0  0
   -1.4483   10.1175   -0.0000 C   0  0  0  0  0  0  0  0  0  0  0  0
    1.1423   10.1378   -0.0000 C   0  0  0  0  0  0  0  0  0  0  0  0
   -0.1632   10.6478   -0.0000 C   0  0  0  0  0  0  0  0  0  0  0  0
    3.7125   10.1582   -0.0000 C   0  0  0  0  0  0  0  0  0  0  0  0
   -3.8144    7.3025   -0.0000 O   0  0  0  0  0  0  0  0  0  0  0  0
   -2.7333    9.4035   -0.0000 C   0  0  0  0  0  0  0  0  0  0  0  0
    1.1015   11.6677   -0.0000 C   0  0  0  0  0  0  0  0  0  0  0  0
    3.6921   11.6677   -0.0000 C   0  0  0  0  0  0  0  0  0  0  0  0
    6.2826   10.1582   -0.0000 C   0  0  0  0  0  0  0  0  0  0  0  0
    2.3662   12.4428   -0.0000 C   0  0  0  0  0  0  0  0  0  0  0  0
    4.9567   12.4632   -0.0000 C   0  0  0  0  0  0  0  0  0  0  0  0
    3.6717   12.9324   -0.0000 C   0  0  0  0  0  0  0  0  0  0  0  0
    6.2622   11.7085   -0.0000 C   0  0  0  0  0  0  0  0  0  0  0  0
    4.9363   13.7279   -0.0000 O   0  0  0  0  0  0  0  0  0  0  0  0
  1  2  2  0  0  0  0
  1  3  2  0  0  0  0
  1  4  1  0  0  0  0
  1  5  1  0  0  0  0
  4  6  1  0  0  0  0
  6  7  2  0  0  0  0
  6  8  1  0  0  0  0
  7  9  1  0  0  0  0
  8 10  2  0  0  0  0
  9 11  2  0  0  0  0
 11 12  1  0  0  0  0
 12 13  1  0  0  0  0
 12 14  2  0  0  0  0
 13 15  2  0  0  0  0
 13 16  1  0  0  0  0
 17 14  1  6  0  0  0
 15 18  1  0  0  0  0
 16 19  1  0  0  0  0
 16 20  1  0  0  0  0
 16 21  1  1  0  0  0
 17 22  1  0  0  0  0
 18 23  2  0  0  0  0
 18 24  1  0  0  0  0
 20 25  1  1  0  0  0
 22 26  1  0  0  0  0
 22 27  1  1  0  0  0
 25 28  1  0  0  0  0
 26 29  1  0  0  0  0
 26 30  1  1  0  0  0
 27 31  1  0  0  0  0
 29 32  2  0  0  0  0
 10 11  1  0  0  0  0
 17 20  1  0  0  0  0
 19 24  2  0  0  0  0
 26 28  1  0  0  0  0
 29 31  1  0  0  0  0
M  END
>  <MolRegNo>
2057956

>  <m>
=

>  <Value>
56

>  <Unit>
nM

>  <Type>
Ki

>  <pValue>
7.25

>  <Ligand Efficiency>
0.31

>  <Binding Efficiency>
15.99

>  <Surface Efficiency>
7

>  <Assay Index>
985353

>  <Assay Category>


>  <Assay Organism>
Homo sapiens

>  <Target ID>
65

>  <Target Name>
Cytochrome P450 19A1

>  <Target Organism>
Homo sapiens

>  <Target Description>
Target is a single protein chain

>  <Sequence Accession>
P11511

>  <Reference>


>  <Pubmed ID>
26469743

>  <DOI>
10.1016/j.ejmech.2015.09.038

$$$$
2058111
Actelion Java MolfileCreator 1.0

 20 23  0  0  0  0  0  0  0  0999 V2000
    0.0000   -0.0000   -0.0000 O   0  0  0  0  0  0  0  0  0  0  0  0
    0.0000   -1.2169   -0.0000 C   0  0  0  0  0  0  0  0  0  0  0  0
   -1.3004   -1.9684   -0.0000 C   0  0  0  0  0  0  0  0  0  0  0  0
    1.2765   -1.9565   -0.0000 C   0  0  0  0  0  0  0  0  0  0  0  0
   -1.3123   -3.4358   -0.0000 C   0  0  0  0  0  0  0  0  0  0  0  0
   -2.5888   -1.2049   -0.0000 C   0  0  0  0  0  0  0  0  0  0  0  0
   -1.3123   -0.7277   -0.0000 C   0  0  0  0  0  0  0  0  0  0  0  0
    1.2646   -3.4597   -0.0000 C   0  0  0  0  0  0  0  0  0  0  0  0
   -2.6007   -4.1516   -0.0000 C   0  0  0  0  0  0  0  0  0  0  0  0
   -3.8892   -1.9446   -0.0000 C   0  0  0  0  0  0  0  0  0  0  0  0
   -3.8892   -3.4239   -0.0000 C   0  0  0  0  0  0  0  0  0  0  0  0
   -2.5888   -5.6190   -0.0000 C   0  0  0  0  0  0  0  0  0  0  0  0
   -5.1776   -4.1397   -0.0000 C   0  0  0  0  0  0  0  0  0  0  0  0
   -3.8772   -6.3706   -0.0000 C   0  0  0  0  0  0  0  0  0  0  0  0
   -5.1895   -5.6071   -0.0000 C   0  0  0  0  0  0  0  0  0  0  0  0
   -6.5018   -3.4120   -0.0000 C   0  0  0  0  0  0  0  0  0  0  0  0
   -5.2015   -2.8990   -0.0000 C   0  0  0  0  0  0  0  0  0  0  0  0
   -6.4899   -6.3587   -0.0000 C   0  0  0  0  0  0  0  0  0  0  0  0
   -7.7664   -4.1278   -0.0000 C   0  0  0  0  0  0  0  0  0  0  0  0
   -7.7783   -5.5952   -0.0000 C   0  0  0  0  0  0  0  0  0  0  0  0
  1  2  2  0  0  0  0
  2  3  1  0  0  0  0
  2  4  1  0  0  0  0
  3  5  1  0  0  0  0
  3  6  1  0  0  0  0
  3  7  1  6  0  0  0
  4  8  1  0  0  0  0
  5  9  1  0  0  0  0
  6 10  1  0  0  0  0
  9 11  1  0  0  0  0
  9 12  1  1  0  0  0
 11 13  1  0  0  0  0
 12 14  1  0  0  0  0
 13 15  1  0  0  0  0
 13 16  1  0  0  0  0
 13 17  1  6  0  0  0
 15 18  1  0  0  0  0
 16 19  1  0  0  0  0
 18 20  2  0  0  0  0
  5  8  1  6  0  0  0
 11 10  1  6  0  0  0
 14 15  2  0  0  0  0
 19 20  1  0  0  0  0
M  END
>  <MolRegNo>
2058111

>  <m>
=

>  <Value>
58

>  <Unit>
nM

>  <Type>
Ki

>  <pValue>
7.24

>  <Ligand Efficiency>
0.49

>  <Binding Efficiency>
26.76

>  <Surface Efficiency>
42.39

>  <Assay Index>
985353

>  <Assay Category>


>  <Assay Organism>
Homo sapiens

>  <Target ID>
65

>  <Target Name>
Cytochrome P450 19A1

>  <Target Organism>
Homo sapiens

>  <Target Description>
Target is a single protein chain

>  <Sequence Accession>
P11511

>  <Reference>


>  <Pubmed ID>
26469743

>  <DOI>
10.1016/j.ejmech.2015.09.038

$$$$
2058112
Actelion Java MolfileCreator 1.0

 20 23  0  0  0  0  0  0  0  0999 V2000
    0.0000   -0.0000   -0.0000 O   0  0  0  0  0  0  0  0  0  0  0  0
    0.0000   -1.2169   -0.0000 C   0  0  0  0  0  0  0  0  0  0  0  0
   -1.3004   -1.9684   -0.0000 C   0  0  0  0  0  0  0  0  0  0  0  0
    1.2765   -1.9565   -0.0000 C   0  0  0  0  0  0  0  0  0  0  0  0
   -1.3123   -3.4358   -0.0000 C   0  0  0  0  0  0  0  0  0  0  0  0
   -2.5888   -1.2049   -0.0000 C   0  0  0  0  0  0  0  0  0  0  0  0
   -1.3123   -0.7277   -0.0000 C   0  0  0  0  0  0  0  0  0  0  0  0
    1.2646   -3.4597   -0.0000 C   0  0  0  0  0  0  0  0  0  0  0  0
   -2.6007   -4.1516   -0.0000 C   0  0  0  0  0  0  0  0  0  0  0  0
   -3.8892   -1.9446   -0.0000 C   0  0  0  0  0  0  0  0  0  0  0  0
   -3.8892   -3.4239   -0.0000 C   0  0  0  0  0  0  0  0  0  0  0  0
   -2.5888   -5.6190   -0.0000 C   0  0  0  0  0  0  0  0  0  0  0  0
   -5.1776   -4.1397   -0.0000 C   0  0  0  0  0  0  0  0  0  0  0  0
   -3.8772   -6.3706   -0.0000 C   0  0  0  0  0  0  0  0  0  0  0  0
   -5.1895   -5.6071   -0.0000 C   0  0  0  0  0  0  0  0  0  0  0  0
   -6.5018   -3.4120   -0.0000 C   0  0  0  0  0  0  0  0  0  0  0  0
   -5.2015   -2.8990   -0.0000 C   0  0  0  0  0  0  0  0  0  0  0  0
   -6.4899   -6.3587   -0.0000 C   0  0  0  0  0  0  0  0  0  0  0  0
   -7.7664   -4.1278   -0.0000 C   0  0  0  0  0  0  0  0  0  0  0  0
   -7.7783   -5.5952   -0.0000 C   0  0  0  0  0  0  0  0  0  0  0  0
  2  1  1  6  0  0  0
  2  3  1  0  0  0  0
  2  4  1  0  0  0  0
  3  5  1  0  0  0  0
  3  6  1  0  0  0  0
  3  7  1  6  0  0  0
  4  8  1  0  0  0  0
  5  9  1  0  0  0  0
  6 10  1  0  0  0  0
  9 11  1  0  0  0  0
  9 12  1  1  0  0  0
 11 13  1  0  0  0  0
 12 14  1  0  0  0  0
 13 15  1  0  0  0  0
 13 16  1  0  0  0  0
 13 17  1  6  0  0  0
 15 18  1  0  0  0  0
 16 19  1  0  0  0  0
 18 20  1  0  0  0  0
  5  8  1  6  0  0  0
 11 10  1  6  0  0  0
 14 15  2  0  0  0  0
 19 20  1  0  0  0  0
M  END
>  <MolRegNo>
2058112

>  <m>
=

>  <Value>
58

>  <Unit>
nM

>  <Type>
Ki

>  <pValue>
7.24

>  <Ligand Efficiency>
0.49

>  <Binding Efficiency>
26.37

>  <Surface Efficiency>
35.77

>  <Assay Index>
985353

>  <Assay Category>


>  <Assay Organism>
Homo sapiens

>  <Target ID>
65

>  <Target Name>
Cytochrome P450 19A1

>  <Target Organism>
Homo sapiens

>  <Target Description>
Target is a single protein chain

>  <Sequence Accession>
P11511

>  <Reference>


>  <Pubmed ID>
26469743

>  <DOI>
10.1016/j.ejmech.2015.09.038

$$$$
2058113
Actelion Java MolfileCreator 1.0

 20 23  0  0  0  0  0  0  0  0999 V2000
    0.0000   -0.0000   -0.0000 O   0  0  0  0  0  0  0  0  0  0  0  0
    0.0000   -1.2169   -0.0000 C   0  0  0  0  0  0  0  0  0  0  0  0
   -1.3004   -1.9684   -0.0000 C   0  0  0  0  0  0  0  0  0  0  0  0
    1.2765   -1.9565   -0.0000 C   0  0  0  0  0  0  0  0  0  0  0  0
   -1.3123   -3.4358   -0.0000 C   0  0  0  0  0  0  0  0  0  0  0  0
   -2.5888   -1.2049   -0.0000 C   0  0  0  0  0  0  0  0  0  0  0  0
   -1.3123   -0.7277   -0.0000 C   0  0  0  0  0  0  0  0  0  0  0  0
    1.2646   -3.4597   -0.0000 C   0  0  0  0  0  0  0  0  0  0  0  0
   -2.6007   -4.1516   -0.0000 C   0  0  0  0  0  0  0  0  0  0  0  0
   -3.8892   -1.9446   -0.0000 C   0  0  0  0  0  0  0  0  0  0  0  0
   -3.8892   -3.4239   -0.0000 C   0  0  0  0  0  0  0  0  0  0  0  0
   -2.5888   -5.6190   -0.0000 C   0  0  0  0  0  0  0  0  0  0  0  0
   -5.1776   -4.1397   -0.0000 C   0  0  0  0  0  0  0  0  0  0  0  0
   -3.8772   -6.3706   -0.0000 C   0  0  0  0  0  0  0  0  0  0  0  0
   -5.1895   -5.6071   -0.0000 C   0  0  0  0  0  0  0  0  0  0  0  0
   -6.5018   -3.4120   -0.0000 C   0  0  0  0  0  0  0  0  0  0  0  0
   -5.2015   -2.8990   -0.0000 C   0  0  0  0  0  0  0  0  0  0  0  0
   -6.4899   -6.3587   -0.0000 C   0  0  0  0  0  0  0  0  0  0  0  0
   -7.7664   -4.1278   -0.0000 C   0  0  0  0  0  0  0  0  0  0  0  0
   -7.7783   -5.5952   -0.0000 C   0  0  0  0  0  0  0  0  0  0  0  0
  2  1  1  6  0  0  0
  2  3  1  0  0  0  0
  2  4  1  0  0  0  0
  3  5  1  0  0  0  0
  3  6  1  0  0  0  0
  3  7  1  6  0  0  0
  4  8  1  0  0  0  0
  5  9  1  0  0  0  0
  6 10  1  0  0  0  0
  9 11  1  0  0  0  0
  9 12  1  1  0  0  0
 11 13  1  0  0  0  0
 12 14  1  0  0  0  0
 13 15  1  0  0  0  0
 13 16  1  0  0  0  0
 13 17  1  6  0  0  0
 15 18  1  0  0  0  0
 16 19  1  0  0  0  0
 18 20  2  0  0  0  0
  5  8  1  6  0  0  0
 11 10  1  6  0  0  0
 14 15  2  0  0  0  0
 19 20  1  0  0  0  0
M  END
>  <MolRegNo>
2058113

>  <m>
=

>  <Value>
58

>  <Unit>
nM

>  <Type>
Ki

>  <pValue>
7.24

>  <Ligand Efficiency>
0.49

>  <Binding Efficiency>
26.56

>  <Surface Efficiency>
35.77

>  <Assay Index>
985353

>  <Assay Category>


>  <Assay Organism>
Homo sapiens

>  <Target ID>
65

>  <Target Name>
Cytochrome P450 19A1

>  <Target Organism>
Homo sapiens

>  <Target Description>
Target is a single protein chain

>  <Sequence Accession>
P11511

>  <Reference>


>  <Pubmed ID>
26469743

>  <DOI>
10.1016/j.ejmech.2015.09.038

$$$$
2058238
Actelion Java MolfileCreator 1.0

 23 27  0  0  0  0  0  0  0  0999 V2000
    0.0000   -0.0000   -0.0000 O   0  0  0  0  0  0  0  0  0  0  0  0
   -0.0134    1.2322   -0.0000 C   0  0  0  0  0  0  0  0  0  0  0  0
   -1.3795    2.0224   -0.0000 C   0  0  0  0  0  0  0  0  0  0  0  0
    1.2991    2.0224   -0.0000 C   0  0  0  0  0  0  0  0  0  0  0  0
   -1.3929    0.3348   -0.0000 O   0  0  0  0  0  0  0  0  0  0  0  0
   -1.3929    3.6027   -0.0000 C   0  0  0  0  0  0  0  0  0  0  0  0
   -2.7054    1.2590   -0.0000 C   0  0  0  0  0  0  0  0  0  0  0  0
    1.2857    3.6027   -0.0000 C   0  0  0  0  0  0  0  0  0  0  0  0
   -0.0938    4.3795   -0.0000 C   0  0  0  0  0  0  0  0  0  0  0  0
   -2.7724    4.3795   -0.0000 C   0  0  0  0  0  0  0  0  0  0  0  0
   -1.4197    4.6340   -0.0000 C   0  0  0  0  0  0  0  0  0  0  0  0
   -4.0983    2.0491   -0.0000 C   0  0  0  0  0  0  0  0  0  0  0  0
    2.6117    4.4063   -0.0000 C   0  0  0  0  0  0  0  0  0  0  0  0
   -0.1071    6.0001   -0.0000 C   0  0  0  0  0  0  0  0  0  0  0  0
   -4.1117    3.6295   -0.0000 C   0  0  0  0  0  0  0  0  0  0  0  0
   -5.1563    1.4465   -0.0000 O   0  0  0  0  0  0  0  0  0  0  0  0
    2.5983    6.0403   -0.0000 C   0  0  0  0  0  0  0  0  0  0  0  0
    4.0715    3.9510   -0.0000 C   0  0  0  0  0  0  0  0  0  0  0  0
    1.2054    6.7903   -0.0000 C   0  0  0  0  0  0  0  0  0  0  0  0
    4.0179    6.4957   -0.0000 C   0  0  0  0  0  0  0  0  0  0  0  0
    2.7054    7.2591   -0.0000 C   0  0  0  0  0  0  0  0  0  0  0  0
    4.9688    5.1831   -0.0000 C   0  0  0  0  0  0  0  0  0  0  0  0
    4.3795    7.6609   -0.0000 O   0  0  0  0  0  0  0  0  0  0  0  0
  1  2  2  0  0  0  0
  2  3  1  0  0  0  0
  2  4  1  0  0  0  0
  3  5  1  6  0  0  0
  3  6  1  0  0  0  0
  3  7  1  0  0  0  0
  8  4  1  1  0  0  0
  6  9  1  0  0  0  0
  6 10  1  0  0  0  0
  6 11  1  6  0  0  0
  7 12  1  0  0  0  0
  8 13  1  0  0  0  0
  9 14  1  6  0  0  0
 10 15  1  0  0  0  0
 12 16  2  0  0  0  0
 13 17  1  0  0  0  0
 13 18  1  6  0  0  0
 14 19  1  0  0  0  0
 17 20  1  0  0  0  0
 17 21  1  6  0  0  0
 18 22  1  0  0  0  0
 20 23  2  0  0  0  0
  7  5  1  6  0  0  0
  8  9  1  0  0  0  0
 12 15  1  0  0  0  0
 17 19  1  0  0  0  0
 20 22  1  0  0  0  0
M  END
>  <MolRegNo>
2058238

>  <m>
=

>  <Value>
5000

>  <Unit>
nM

>  <Type>
Ki

>  <pValue>
5.3

>  <Ligand Efficiency>
0.31

>  <Binding Efficiency>
16.75

>  <Surface Efficiency>
8.32

>  <Assay Index>
985353

>  <Assay Category>


>  <Assay Organism>
Homo sapiens

>  <Target ID>
65

>  <Target Name>
Cytochrome P450 19A1

>  <Target Organism>
Homo sapiens

>  <Target Description>
Target is a single protein chain

>  <Sequence Accession>
P11511

>  <Reference>


>  <Pubmed ID>
26469743

>  <DOI>
10.1016/j.ejmech.2015.09.038

$$$$
2058239
Actelion Java MolfileCreator 1.0

 24 28  0  0  0  0  0  0  0  0999 V2000
    0.0000   -0.0000   -0.0000 O   0  0  0  0  0  0  0  0  0  0  0  0
   -0.0134    1.2315   -0.0000 C   0  0  0  0  0  0  0  0  0  0  0  0
   -1.3787    2.0212   -0.0000 C   0  0  0  0  0  0  0  0  0  0  0  0
    1.2984    2.0212   -0.0000 C   0  0  0  0  0  0  0  0  0  0  0  0
   -1.3921    0.3346   -0.0000 O   0  0  0  0  0  0  0  0  0  0  0  0
   -1.3921    3.6007   -0.0000 C   0  0  0  0  0  0  0  0  0  0  0  0
   -2.7039    1.2583   -0.0000 C   0  0  0  0  0  0  0  0  0  0  0  0
    1.2850    3.6007   -0.0000 C   0  0  0  0  0  0  0  0  0  0  0  0
   -2.7173    2.8511   -0.0000 C   0  0  0  0  0  0  0  0  0  0  0  0
   -0.0937    4.3771   -0.0000 C   0  0  0  0  0  0  0  0  0  0  0  0
   -2.7708    4.3771   -0.0000 C   0  0  0  0  0  0  0  0  0  0  0  0
   -4.0960    2.0480   -0.0000 C   0  0  0  0  0  0  0  0  0  0  0  0
    2.6102    4.4039   -0.0000 C   0  0  0  0  0  0  0  0  0  0  0  0
   -3.6141    3.3598   -0.0000 O   0  0  0  0  0  0  0  0  0  0  0  0
   -0.1071    5.9968   -0.0000 C   0  0  0  0  0  0  0  0  0  0  0  0
   -4.1094    3.6275   -0.0000 C   0  0  0  0  0  0  0  0  0  0  0  0
   -5.1535    1.4457   -0.0000 O   0  0  0  0  0  0  0  0  0  0  0  0
    2.5968    6.0369   -0.0000 C   0  0  0  0  0  0  0  0  0  0  0  0
    4.0692    3.9488   -0.0000 C   0  0  0  0  0  0  0  0  0  0  0  0
    1.2047    6.7865   -0.0000 C   0  0  0  0  0  0  0  0  0  0  0  0
    4.0157    6.4920   -0.0000 C   0  0  0  0  0  0  0  0  0  0  0  0
    2.7039    7.2550   -0.0000 C   0  0  0  0  0  0  0  0  0  0  0  0
    4.9661    5.1802   -0.0000 C   0  0  0  0  0  0  0  0  0  0  0  0
    4.3771    7.6566   -0.0000 O   0  0  0  0  0  0  0  0  0  0  0  0
  1  2  2  0  0  0  0
  2  3  1  0  0  0  0
  2  4  1  0  0  0  0
  3  5  1  1  0  0  0
  3  6  1  0  0  0  0
  3  7  1  0  0  0  0
  8  4  1  6  0  0  0
  6  9  1  1  0  0  0
  6 10  1  0  0  0  0
  6 11  1  0  0  0  0
  7 12  1  0  0  0  0
  8 13  1  0  0  0  0
  9 14  2  0  0  0  0
 10 15  1  1  0  0  0
 11 16  1  0  0  0  0
 12 17  2  0  0  0  0
 13 18  1  0  0  0  0
 13 19  1  1  0  0  0
 15 20  1  0  0  0  0
 18 21  1  0  0  0  0
 18 22  1  1  0  0  0
 19 23  1  0  0  0  0
 21 24  2  0  0  0  0
  7  5  1  1  0  0  0
  8 10  1  0  0  0  0
 12 16  1  0  0  0  0
 18 20  1  0  0  0  0
 21 23  1  0  0  0  0
M  END
>  <MolRegNo>
2058239

>  <m>
=

>  <Value>
5000

>  <Unit>
nM

>  <Type>
Ki

>  <pValue>
5.3

>  <Ligand Efficiency>
0.3

>  <Binding Efficiency>
16.05

>  <Surface Efficiency>
6.56

>  <Assay Index>
985353

>  <Assay Category>


>  <Assay Organism>
Homo sapiens

>  <Target ID>
65

>  <Target Name>
Cytochrome P450 19A1

>  <Target Organism>
Homo sapiens

>  <Target Description>
Target is a single protein chain

>  <Sequence Accession>
P11511

>  <Reference>


>  <Pubmed ID>
26469743

>  <DOI>
10.1016/j.ejmech.2015.09.038

$$$$
2058240
Actelion Java MolfileCreator 1.0

 23 27  0  0  0  0  0  0  0  0999 V2000
    0.0000   -0.0000   -0.0000 O   0  0  0  0  0  0  0  0  0  0  0  0
   -1.0962    0.6205   -0.0000 C   0  0  0  0  0  0  0  0  0  0  0  0
   -1.1169    2.3992   -0.0000 C   0  0  0  0  0  0  0  0  0  0  0  0
   -2.3579   -0.1034   -0.0000 C   0  0  0  0  0  0  0  0  0  0  0  0
   -2.3786    2.9163   -0.0000 C   0  0  0  0  0  0  0  0  0  0  0  0
    0.1448    2.9163   -0.0000 C   0  0  0  0  0  0  0  0  0  0  0  0
   -3.6816   -0.8273   -0.0000 O   0  0  0  0  0  0  0  0  0  0  0  0
   -3.6816    0.6619   -0.0000 C   0  0  0  0  0  0  0  0  0  0  0  0
   -3.7023    2.4406   -0.0000 C   0  0  0  0  0  0  0  0  0  0  0  0
   -2.3992    4.4055   -0.0000 C   0  0  0  0  0  0  0  0  0  0  0  0
    0.1241    4.4055   -0.0000 C   0  0  0  0  0  0  0  0  0  0  0  0
    2.7509    2.9370   -0.0000 C   0  0  0  0  0  0  0  0  0  0  0  0
   -4.9846   -0.0620   -0.0000 C   0  0  0  0  0  0  0  0  0  0  0  0
   -5.0053    2.9577   -0.0000 C   0  0  0  0  0  0  0  0  0  0  0  0
   -3.7230    3.7023   -0.0000 C   0  0  0  0  0  0  0  0  0  0  0  0
   -1.1789    5.1294   -0.0000 C   0  0  0  0  0  0  0  0  0  0  0  0
    1.4478    5.1294   -0.0000 C   0  0  0  0  0  0  0  0  0  0  0  0
    0.1241    5.6672   -0.0000 C   0  0  0  0  0  0  0  0  0  0  0  0
    2.7302    4.4262   -0.0000 C   0  0  0  0  0  0  0  0  0  0  0  0
   -5.0053   -1.2824   -0.0000 O   0  0  0  0  0  0  0  0  0  0  0  0
   -6.3083    0.7032   -0.0000 C   0  0  0  0  0  0  0  0  0  0  0  0
   -6.3290    2.4820   -0.0000 C   0  0  0  0  0  0  0  0  0  0  0  0
    1.4478    6.3911   -0.0000 O   0  0  0  0  0  0  0  0  0  0  0  0
  1  2  2  0  0  0  0
  3  2  1  1  0  0  0
  2  4  1  0  0  0  0
  3  5  1  0  0  0  0
  3  6  1  0  0  0  0
  4  7  1  6  0  0  0
  4  8  1  0  0  0  0
  5  9  1  0  0  0  0
  5 10  1  6  0  0  0
  6 11  1  0  0  0  0
  6 12  1  6  0  0  0
  8 13  1  0  0  0  0
  9 14  1  0  0  0  0
  9 15  1  6  0  0  0
 10 16  1  0  0  0  0
 11 17  1  0  0  0  0
 11 18  1  6  0  0  0
 12 19  1  0  0  0  0
 13 20  2  0  0  0  0
 13 21  1  0  0  0  0
 14 22  1  0  0  0  0
 17 23  2  0  0  0  0
  8  7  1  6  0  0  0
  8  9  1  0  0  0  0
 11 16  1  0  0  0  0
 17 19  1  0  0  0  0
 21 22  1  0  0  0  0
M  END
>  <MolRegNo>
2058240

>  <m>
=

>  <Value>
5000

>  <Unit>
nM

>  <Type>
Ki

>  <pValue>
5.3

>  <Ligand Efficiency>
0.31

>  <Binding Efficiency>
16.75

>  <Surface Efficiency>
8.32

>  <Assay Index>
985353

>  <Assay Category>


>  <Assay Organism>
Homo sapiens

>  <Target ID>
65

>  <Target Name>
Cytochrome P450 19A1

>  <Target Organism>
Homo sapiens

>  <Target Description>
Target is a single protein chain

>  <Sequence Accession>
P11511

>  <Reference>


>  <Pubmed ID>
26469743

>  <DOI>
10.1016/j.ejmech.2015.09.038

$$$$
2058241
Actelion Java MolfileCreator 1.0

 24 28  0  0  0  0  0  0  0  0999 V2000
    0.0000   -0.0000   -0.0000 O   0  0  0  0  0  0  0  0  0  0  0  0
   -1.0946    0.6196   -0.0000 C   0  0  0  0  0  0  0  0  0  0  0  0
   -1.1152    2.3956   -0.0000 C   0  0  0  0  0  0  0  0  0  0  0  0
   -2.3543   -0.1033   -0.0000 C   0  0  0  0  0  0  0  0  0  0  0  0
   -2.3750    2.9119   -0.0000 C   0  0  0  0  0  0  0  0  0  0  0  0
    0.1446    2.9119   -0.0000 C   0  0  0  0  0  0  0  0  0  0  0  0
   -3.6761   -0.8261   -0.0000 O   0  0  0  0  0  0  0  0  0  0  0  0
   -3.6761    0.6609   -0.0000 C   0  0  0  0  0  0  0  0  0  0  0  0
   -3.6967    2.4369   -0.0000 C   0  0  0  0  0  0  0  0  0  0  0  0
   -2.3956    4.3989   -0.0000 C   0  0  0  0  0  0  0  0  0  0  0  0
    0.1239    4.3989   -0.0000 C   0  0  0  0  0  0  0  0  0  0  0  0
    2.7467    2.9326   -0.0000 C   0  0  0  0  0  0  0  0  0  0  0  0
   -4.9772   -0.0620   -0.0000 C   0  0  0  0  0  0  0  0  0  0  0  0
   -5.0598    1.6935   -0.0000 C   0  0  0  0  0  0  0  0  0  0  0  0
   -4.9978    2.9532   -0.0000 C   0  0  0  0  0  0  0  0  0  0  0  0
   -1.1772    5.1217   -0.0000 C   0  0  0  0  0  0  0  0  0  0  0  0
    1.4456    5.1217   -0.0000 C   0  0  0  0  0  0  0  0  0  0  0  0
    0.1239    5.6587   -0.0000 C   0  0  0  0  0  0  0  0  0  0  0  0
    2.7261    4.4195   -0.0000 C   0  0  0  0  0  0  0  0  0  0  0  0
   -4.9978   -1.2804   -0.0000 O   0  0  0  0  0  0  0  0  0  0  0  0
   -6.2989    0.7022   -0.0000 C   0  0  0  0  0  0  0  0  0  0  0  0
   -6.1543    2.3337   -0.0000 O   0  0  0  0  0  0  0  0  0  0  0  0
   -6.3195    2.4782   -0.0000 C   0  0  0  0  0  0  0  0  0  0  0  0
    1.4456    6.3815   -0.0000 O   0  0  0  0  0  0  0  0  0  0  0  0
  1  2  2  0  0  0  0
  3  2  1  6  0  0  0
  2  4  1  0  0  0  0
  3  5  1  0  0  0  0
  3  6  1  0  0  0  0
  4  7  1  1  0  0  0
  4  8  1  0  0  0  0
  5  9  1  0  0  0  0
  5 10  1  1  0  0  0
  6 11  1  0  0  0  0
  6 12  1  1  0  0  0
  8 13  1  0  0  0  0
  9 14  1  1  0  0  0
  9 15  1  0  0  0  0
 10 16  1  0  0  0  0
 11 17  1  0  0  0  0
 11 18  1  1  0  0  0
 12 19  1  0  0  0  0
 13 20  2  0  0  0  0
 13 21  1  0  0  0  0
 14 22  2  0  0  0  0
 15 23  1  0  0  0  0
 17 24  2  0  0  0  0
  8  7  1  1  0  0  0
  8  9  1  0  0  0  0
 11 16  1  0  0  0  0
 17 19  1  0  0  0  0
 21 23  1  0  0  0  0
M  END
>  <MolRegNo>
2058241

>  <m>
=

>  <Value>
5000

>  <Unit>
nM

>  <Type>
Ki

>  <pValue>
5.3

>  <Ligand Efficiency>
0.3

>  <Binding Efficiency>
16.05

>  <Surface Efficiency>
6.56

>  <Assay Index>
985353

>  <Assay Category>


>  <Assay Organism>
Homo sapiens

>  <Target ID>
65

>  <Target Name>
Cytochrome P450 19A1

>  <Target Organism>
Homo sapiens

>  <Target Description>
Target is a single protein chain

>  <Sequence Accession>
P11511

>  <Reference>


>  <Pubmed ID>
26469743

>  <DOI>
10.1016/j.ejmech.2015.09.038

$$$$
2058242
Actelion Java MolfileCreator 1.0

 22 26  0  0  0  0  0  0  0  0999 V2000
    0.0000   -0.0000   -0.0000 O   0  0  0  0  0  0  0  0  0  0  0  0
    1.0321    0.6244   -0.0000 C   0  0  0  0  0  0  0  0  0  0  0  0
    2.3956   -0.1402   -0.0000 C   0  0  0  0  0  0  0  0  0  0  0  0
    1.0194    2.2045   -0.0000 C   0  0  0  0  0  0  0  0  0  0  0  0
    3.6953   -1.0449   -0.0000 O   0  0  0  0  0  0  0  0  0  0  0  0
    3.6953    0.6499   -0.0000 C   0  0  0  0  0  0  0  0  0  0  0  0
    2.3319    2.9817   -0.0000 C   0  0  0  0  0  0  0  0  0  0  0  0
    3.6826    2.2299   -0.0000 C   0  0  0  0  0  0  0  0  0  0  0  0
    5.0333   -0.1147   -0.0000 C   0  0  0  0  0  0  0  0  0  0  0  0
    4.9696    3.0072   -0.0000 C   0  0  0  0  0  0  0  0  0  0  0  0
    3.6571    3.2493   -0.0000 C   0  0  0  0  0  0  0  0  0  0  0  0
    6.3458    0.6754   -0.0000 C   0  0  0  0  0  0  0  0  0  0  0  0
    6.3203    2.2554   -0.0000 C   0  0  0  0  0  0  0  0  0  0  0  0
    4.9568    4.6255   -0.0000 C   0  0  0  0  0  0  0  0  0  0  0  0
    7.6455    3.0582   -0.0000 C   0  0  0  0  0  0  0  0  0  0  0  0
    6.2693    5.4156   -0.0000 C   0  0  0  0  0  0  0  0  0  0  0  0
    7.6328    4.6892   -0.0000 C   0  0  0  0  0  0  0  0  0  0  0  0
    9.1109    2.5995   -0.0000 C   0  0  0  0  0  0  0  0  0  0  0  0
    9.0472    5.1352   -0.0000 C   0  0  0  0  0  0  0  0  0  0  0  0
    7.7475    5.9125   -0.0000 C   0  0  0  0  0  0  0  0  0  0  0  0
   10.0029    3.8355   -0.0000 C   0  0  0  0  0  0  0  0  0  0  0  0
    9.4167    6.2948   -0.0000 O   0  0  0  0  0  0  0  0  0  0  0  0
  1  2  2  0  0  0  0
  2  3  1  0  0  0  0
  2  4  1  0  0  0  0
  3  5  1  6  0  0  0
  3  6  1  0  0  0  0
  4  7  1  0  0  0  0
  6  8  1  0  0  0  0
  6  9  1  0  0  0  0
  8 10  1  0  0  0  0
  8 11  1  6  0  0  0
  9 12  1  0  0  0  0
 10 13  1  0  0  0  0
 10 14  1  6  0  0  0
 13 15  1  0  0  0  0
 14 16  1  0  0  0  0
 15 17  1  0  0  0  0
 15 18  1  6  0  0  0
 17 19  1  0  0  0  0
 17 20  1  6  0  0  0
 18 21  1  0  0  0  0
 19 22  2  0  0  0  0
  6  5  1  6  0  0  0
  7  8  1  0  0  0  0
 13 12  1  1  0  0  0
 16 17  1  0  0  0  0
 19 21  1  0  0  0  0
M  END
>  <MolRegNo>
2058242

>  <m>
=

>  <Value>
5000

>  <Unit>
nM

>  <Type>
Ki

>  <pValue>
5.3

>  <Ligand Efficiency>
0.33

>  <Binding Efficiency>
17.53

>  <Surface Efficiency>
11.36

>  <Assay Index>
985353

>  <Assay Category>


>  <Assay Organism>
Homo sapiens

>  <Target ID>
65

>  <Target Name>
Cytochrome P450 19A1

>  <Target Organism>
Homo sapiens

>  <Target Description>
Target is a single protein chain

>  <Sequence Accession>
P11511

>  <Reference>


>  <Pubmed ID>
26469743

>  <DOI>
10.1016/j.ejmech.2015.09.038

$$$$
2058243
Actelion Java MolfileCreator 1.0

 23 27  0  0  0  0  0  0  0  0999 V2000
    0.0000   -0.0000   -0.0000 O   0  0  0  0  0  0  0  0  0  0  0  0
    1.0313    0.6239   -0.0000 C   0  0  0  0  0  0  0  0  0  0  0  0
    2.3937   -0.1401   -0.0000 C   0  0  0  0  0  0  0  0  0  0  0  0
    1.0186    2.2028   -0.0000 C   0  0  0  0  0  0  0  0  0  0  0  0
    3.6925   -1.0441   -0.0000 O   0  0  0  0  0  0  0  0  0  0  0  0
    3.6925    0.6494   -0.0000 C   0  0  0  0  0  0  0  0  0  0  0  0
    2.3301    2.9795   -0.0000 C   0  0  0  0  0  0  0  0  0  0  0  0
    3.6797    2.2282   -0.0000 C   0  0  0  0  0  0  0  0  0  0  0  0
    5.0294   -0.1146   -0.0000 C   0  0  0  0  0  0  0  0  0  0  0  0
    2.3555    1.4770   -0.0000 C   0  0  0  0  0  0  0  0  0  0  0  0
    4.9658    3.0049   -0.0000 C   0  0  0  0  0  0  0  0  0  0  0  0
    6.3409    0.6748   -0.0000 C   0  0  0  0  0  0  0  0  0  0  0  0
    1.4643    1.9863   -0.0000 O   0  0  0  0  0  0  0  0  0  0  0  0
    6.3154    2.2537   -0.0000 C   0  0  0  0  0  0  0  0  0  0  0  0
    4.9530    4.6220   -0.0000 C   0  0  0  0  0  0  0  0  0  0  0  0
    7.6396    3.0558   -0.0000 C   0  0  0  0  0  0  0  0  0  0  0  0
    6.2645    5.4114   -0.0000 C   0  0  0  0  0  0  0  0  0  0  0  0
    7.6269    4.6856   -0.0000 C   0  0  0  0  0  0  0  0  0  0  0  0
    9.1039    2.5975   -0.0000 C   0  0  0  0  0  0  0  0  0  0  0  0
    9.0402    5.1313   -0.0000 C   0  0  0  0  0  0  0  0  0  0  0  0
    7.7415    5.9080   -0.0000 C   0  0  0  0  0  0  0  0  0  0  0  0
    9.9952    3.8325   -0.0000 C   0  0  0  0  0  0  0  0  0  0  0  0
    9.4095    6.2900   -0.0000 O   0  0  0  0  0  0  0  0  0  0  0  0
  1  2  2  0  0  0  0
  2  3  1  0  0  0  0
  2  4  1  0  0  0  0
  3  5  1  1  0  0  0
  3  6  1  0  0  0  0
  4  7  1  0  0  0  0
  6  8  1  0  0  0  0
  6  9  1  0  0  0  0
  8 10  1  1  0  0  0
  8 11  1  0  0  0  0
  9 12  1  0  0  0  0
 10 13  2  0  0  0  0
 11 14  1  0  0  0  0
 11 15  1  1  0  0  0
 14 16  1  0  0  0  0
 15 17  1  0  0  0  0
 16 18  1  0  0  0  0
 16 19  1  1  0  0  0
 18 20  1  0  0  0  0
 18 21  1  1  0  0  0
 19 22  1  0  0  0  0
 20 23  2  0  0  0  0
  6  5  1  1  0  0  0
  7  8  1  0  0  0  0
 14 12  1  6  0  0  0
 17 18  1  0  0  0  0
 20 22  1  0  0  0  0
M  END
>  <MolRegNo>
2058243

>  <m>
=

>  <Value>
5000

>  <Unit>
nM

>  <Type>
Ki

>  <pValue>
5.3

>  <Ligand Efficiency>
0.31

>  <Binding Efficiency>
16.75

>  <Surface Efficiency>
8.32

>  <Assay Index>
985353

>  <Assay Category>


>  <Assay Organism>
Homo sapiens

>  <Target ID>
65

>  <Target Name>
Cytochrome P450 19A1

>  <Target Organism>
Homo sapiens

>  <Target Description>
Target is a single protein chain

>  <Sequence Accession>
P11511

>  <Reference>


>  <Pubmed ID>
26469743

>  <DOI>
10.1016/j.ejmech.2015.09.038

$$$$
2058244
Actelion Java MolfileCreator 1.0

 23 27  0  0  0  0  0  0  0  0999 V2000
    0.0000   -0.0000   -0.0000 O   0  0  0  0  0  0  0  0  0  0  0  0
    1.0313    0.6239   -0.0000 C   0  0  0  0  0  0  0  0  0  0  0  0
    2.3937   -0.1401   -0.0000 C   0  0  0  0  0  0  0  0  0  0  0  0
    1.0186    2.2028   -0.0000 C   0  0  0  0  0  0  0  0  0  0  0  0
    3.6925   -1.0441   -0.0000 O   0  0  0  0  0  0  0  0  0  0  0  0
    3.6925    0.6494   -0.0000 C   0  0  0  0  0  0  0  0  0  0  0  0
    2.3301    2.9795   -0.0000 C   0  0  0  0  0  0  0  0  0  0  0  0
    3.6797    2.2282   -0.0000 C   0  0  0  0  0  0  0  0  0  0  0  0
    5.0294   -0.1146   -0.0000 C   0  0  0  0  0  0  0  0  0  0  0  0
    4.9658    3.0049   -0.0000 C   0  0  0  0  0  0  0  0  0  0  0  0
    2.3555    1.4770   -0.0000 C   0  0  0  0  0  0  0  0  0  0  0  0
    6.3409    0.6748   -0.0000 C   0  0  0  0  0  0  0  0  0  0  0  0
    6.3154    2.2537   -0.0000 C   0  0  0  0  0  0  0  0  0  0  0  0
    4.9530    4.6220   -0.0000 C   0  0  0  0  0  0  0  0  0  0  0  0
    1.4643    1.9863   -0.0000 O   0  0  0  0  0  0  0  0  0  0  0  0
    7.6396    3.0558   -0.0000 C   0  0  0  0  0  0  0  0  0  0  0  0
    6.2645    5.4114   -0.0000 C   0  0  0  0  0  0  0  0  0  0  0  0
    7.6269    4.6856   -0.0000 C   0  0  0  0  0  0  0  0  0  0  0  0
    9.1039    2.5975   -0.0000 C   0  0  0  0  0  0  0  0  0  0  0  0
    9.0402    5.1313   -0.0000 C   0  0  0  0  0  0  0  0  0  0  0  0
    7.7415    5.9080   -0.0000 C   0  0  0  0  0  0  0  0  0  0  0  0
    9.9952    3.8325   -0.0000 C   0  0  0  0  0  0  0  0  0  0  0  0
    9.4095    6.2900   -0.0000 O   0  0  0  0  0  0  0  0  0  0  0  0
  1  2  2  0  0  0  0
  2  3  1  0  0  0  0
  2  4  1  0  0  0  0
  3  5  1  6  0  0  0
  3  6  1  0  0  0  0
  4  7  1  0  0  0  0
  6  8  1  0  0  0  0
  6  9  1  0  0  0  0
  8 10  1  0  0  0  0
  8 11  1  6  0  0  0
  9 12  1  0  0  0  0
 10 13  1  0  0  0  0
 10 14  1  6  0  0  0
 11 15  1  0  0  0  0
 13 16  1  0  0  0  0
 14 17  1  0  0  0  0
 16 18  1  0  0  0  0
 16 19  1  6  0  0  0
 18 20  1  0  0  0  0
 18 21  1  6  0  0  0
 19 22  1  0  0  0  0
 20 23  2  0  0  0  0
  6  5  1  6  0  0  0
  7  8  1  0  0  0  0
 13 12  1  1  0  0  0
 17 18  1  0  0  0  0
 20 22  1  0  0  0  0
M  END
>  <MolRegNo>
2058244

>  <m>
=

>  <Value>
5000

>  <Unit>
nM

>  <Type>
Ki

>  <pValue>
5.3

>  <Ligand Efficiency>
0.31

>  <Binding Efficiency>
16.65

>  <Surface Efficiency>
7.92

>  <Assay Index>
985353

>  <Assay Category>


>  <Assay Organism>
Homo sapiens

>  <Target ID>
65

>  <Target Name>
Cytochrome P450 19A1

>  <Target Organism>
Homo sapiens

>  <Target Description>
Target is a single protein chain

>  <Sequence Accession>
P11511

>  <Reference>


>  <Pubmed ID>
26469743

>  <DOI>
10.1016/j.ejmech.2015.09.038

$$$$
342897
Actelion Java MolfileCreator 1.0

 20 23  0  0  1  0  0  0  0  0999 V2000
    0.0000   -0.0000   -0.0000 O   0  0  0  0  0  0  0  0  0  0  0  0
   -0.4885   -1.4059   -0.0000 C   0  0  0  0  0  0  0  0  0  0  0  0
   -1.9421   -1.8587   -0.0000 C   0  0  0  0  0  0  0  0  0  0  0  0
    0.3694   -2.5974   -0.0000 C   0  0  0  0  0  0  0  0  0  0  0  0
   -1.9540   -3.3481   -0.0000 C   0  0  0  0  0  0  0  0  0  0  0  0
   -3.2647   -1.0842   -0.0000 C   0  0  0  0  0  0  0  0  0  0  0  0
   -1.9779   -0.3574   -0.0000 C   0  0  0  0  0  0  0  0  0  0  0  0
   -0.5600   -3.8127   -0.0000 C   0  0  0  0  0  0  0  0  0  0  0  0
   -3.2766   -4.0510   -0.0000 C   0  0  0  0  0  0  0  0  0  0  0  0
   -4.5634   -1.8349   -0.0000 C   0  0  0  0  0  0  0  0  0  0  0  0
   -4.5991   -3.3004   -0.0000 C   0  0  0  0  0  0  0  0  0  0  0  0
   -3.3123   -5.5523   -0.0000 C   0  0  0  0  0  0  0  0  0  0  0  0
   -5.8740   -4.0272   -0.0000 C   0  0  0  0  0  0  0  0  0  0  0  0
   -4.6110   -6.2791   -0.0000 C   0  0  0  0  0  0  0  0  0  0  0  0
   -5.9097   -5.5166   -0.0000 C   0  0  0  0  0  0  0  0  0  0  0  0
   -7.1965   -3.2527   -0.0000 C   0  0  0  0  0  0  0  0  0  0  0  0
   -7.2323   -6.2434   -0.0000 C   0  0  0  0  0  0  0  0  0  0  0  0
   -8.5191   -4.0034   -0.0000 C   0  0  0  0  0  0  0  0  0  0  0  0
   -8.5310   -5.4927   -0.0000 C   0  0  0  0  0  0  0  0  0  0  0  0
   -9.8655   -6.1957   -0.0000 O   0  0  0  0  0  0  0  0  0  0  0  0
  1  2  2  0  0  0  0
  2  3  1  0  0  0  0
  2  4  1  0  0  0  0
  3  5  1  0  0  0  0
  3  6  1  0  0  0  0
  3  7  1  1  0  0  0
  4  8  1  0  0  0  0
  5  9  1  0  0  0  0
  6 10  1  0  0  0  0
  9 11  1  0  0  0  0
  9 12  1  6  0  0  0
 11 13  1  0  0  0  0
 12 14  1  0  0  0  0
 13 15  2  0  0  0  0
 13 16  1  0  0  0  0
 15 17  1  0  0  0  0
 16 18  2  0  0  0  0
 17 19  2  0  0  0  0
 19 20  1  0  0  0  0
  5  8  1  1  0  0  0
 11 10  1  1  0  0  0
 14 15  1  0  0  0  0
 18 19  1  0  0  0  0
M  END
>  <MolRegNo>
342897

>  <m>
=

>  <Value>
2500

>  <Unit>
nM

>  <Type>
Ki

>  <pValue>
5.6

>  <Ligand Efficiency>
0.38

>  <Binding Efficiency>
20.72

>  <Surface Efficiency>
15.02

>  <Assay Index>
985353

>  <Assay Category>


>  <Assay Organism>
Homo sapiens

>  <Target ID>
65

>  <Target Name>
Cytochrome P450 19A1

>  <Target Organism>
Homo sapiens

>  <Target Description>
Target is a single protein chain

>  <Sequence Accession>
P11511

>  <Reference>


>  <Pubmed ID>
26469743

>  <DOI>
10.1016/j.ejmech.2015.09.038

$$$$
2057844
Actelion Java MolfileCreator 1.0

 23 26  0  0  0  0  0  0  0  0999 V2000
    0.0000   -0.0000   -0.0000 O   0  0  0  0  0  0  0  0  0  0  0  0
    1.0692    0.6374   -0.0000 C   0  0  0  0  0  0  0  0  0  0  0  0
    2.3439   -0.1028   -0.0000 C   0  0  0  0  0  0  0  0  0  0  0  0
    1.0486    2.1589   -0.0000 C   0  0  0  0  0  0  0  0  0  0  0  0
    3.6187    0.6991   -0.0000 C   0  0  0  0  0  0  0  0  0  0  0  0
    2.3028    2.9196   -0.0000 C   0  0  0  0  0  0  0  0  0  0  0  0
    3.5981    2.2206   -0.0000 C   0  0  0  0  0  0  0  0  0  0  0  0
    4.9140   -0.0411   -0.0000 C   0  0  0  0  0  0  0  0  0  0  0  0
    4.8729    2.9813   -0.0000 C   0  0  0  0  0  0  0  0  0  0  0  0
    3.5570    3.4953   -0.0000 C   0  0  0  0  0  0  0  0  0  0  0  0
    6.1888    0.7607   -0.0000 C   0  0  0  0  0  0  0  0  0  0  0  0
    4.9140   -1.5832   -0.0000 C   0  0  0  0  0  0  0  0  0  0  0  0
    6.1477    2.2822   -0.0000 C   0  0  0  0  0  0  0  0  0  0  0  0
    4.8318    4.5234   -0.0000 C   0  0  0  0  0  0  0  0  0  0  0  0
    3.8243   -2.2000   -0.0000 C   0  0  0  0  0  0  0  0  0  0  0  0
    7.4224    3.0430   -0.0000 C   0  0  0  0  0  0  0  0  0  0  0  0
    6.1066    5.3047   -0.0000 C   0  0  0  0  0  0  0  0  0  0  0  0
    7.4019    4.5645   -0.0000 C   0  0  0  0  0  0  0  0  0  0  0  0
   10.0131    3.0430   -0.0000 C   0  0  0  0  0  0  0  0  0  0  0  0
    8.6767    5.3664   -0.0000 C   0  0  0  0  0  0  0  0  0  0  0  0
    7.3813    5.8393   -0.0000 C   0  0  0  0  0  0  0  0  0  0  0  0
    9.9925    4.6056   -0.0000 C   0  0  0  0  0  0  0  0  0  0  0  0
    8.6561    6.6411   -0.0000 O   0  0  0  0  0  0  0  0  0  0  0  0
  1  2  2  0  0  0  0
  2  3  1  0  0  0  0
  2  4  1  0  0  0  0
  3  5  2  0  0  0  0
  4  6  2  0  0  0  0
  5  7  1  0  0  0  0
  5  8  1  0  0  0  0
  7  9  1  0  0  0  0
  7 10  1  1  0  0  0
  8 11  1  0  0  0  0
  8 12  1  1  0  0  0
  9 13  1  0  0  0  0
  9 14  1  1  0  0  0
 12 15  1  0  0  0  0
 13 16  1  0  0  0  0
 14 17  1  0  0  0  0
 16 18  1  0  0  0  0
 16 19  1  1  0  0  0
 18 20  1  0  0  0  0
 18 21  1  1  0  0  0
 19 22  1  0  0  0  0
 20 23  2  0  0  0  0
  6  7  1  0  0  0  0
 13 11  1  6  0  0  0
 17 18  1  0  0  0  0
 20 22  1  0  0  0  0
M  END
>  <MolRegNo>
2057844

>  <m>
=

>  <Value>
4.7

>  <Unit>
nM

>  <Type>
Ki

>  <pValue>
8.33

>  <Ligand Efficiency>
0.49

>  <Binding Efficiency>
26.65

>  <Surface Efficiency>
24.39

>  <Assay Index>
985355

>  <Assay Category>


>  <Assay Organism>
Homo sapiens

>  <Target ID>
65

>  <Target Name>
Cytochrome P450 19A1

>  <Target Organism>
Homo sapiens

>  <Target Description>
Target is a single protein chain

>  <Sequence Accession>
P11511

>  <Reference>


>  <Pubmed ID>
26469743

>  <DOI>
10.1016/j.ejmech.2015.09.038

$$$$
2057845
Actelion Java MolfileCreator 1.0

 26 29  0  0  0  0  0  0  0  0999 V2000
    0.0000   -0.0000   -0.0000 O   0  0  0  0  0  0  0  0  0  0  0  0
    1.0659    0.6354   -0.0000 C   0  0  0  0  0  0  0  0  0  0  0  0
    2.3367   -0.1025   -0.0000 C   0  0  0  0  0  0  0  0  0  0  0  0
    1.0454    2.1522   -0.0000 C   0  0  0  0  0  0  0  0  0  0  0  0
    3.6075    0.6969   -0.0000 C   0  0  0  0  0  0  0  0  0  0  0  0
    2.2957    2.9106   -0.0000 C   0  0  0  0  0  0  0  0  0  0  0  0
    3.5870    2.2137   -0.0000 C   0  0  0  0  0  0  0  0  0  0  0  0
    4.8988   -0.0410   -0.0000 C   0  0  0  0  0  0  0  0  0  0  0  0
    4.8578    2.9721   -0.0000 C   0  0  0  0  0  0  0  0  0  0  0  0
    3.5460    3.4845   -0.0000 C   0  0  0  0  0  0  0  0  0  0  0  0
    6.1696    0.7584   -0.0000 C   0  0  0  0  0  0  0  0  0  0  0  0
    4.8988   -1.5783   -0.0000 C   0  0  0  0  0  0  0  0  0  0  0  0
    6.1286    2.2752   -0.0000 C   0  0  0  0  0  0  0  0  0  0  0  0
    4.8168    4.5094   -0.0000 C   0  0  0  0  0  0  0  0  0  0  0  0
    3.5460   -2.3367   -0.0000 C   0  0  0  0  0  0  0  0  0  0  0  0
    7.3995    3.0336   -0.0000 C   0  0  0  0  0  0  0  0  0  0  0  0
    6.0877    5.2883   -0.0000 C   0  0  0  0  0  0  0  0  0  0  0  0
    3.5460   -3.8740   -0.0000 C   0  0  0  0  0  0  0  0  0  0  0  0
    7.3790    4.5504   -0.0000 C   0  0  0  0  0  0  0  0  0  0  0  0
    9.9821    3.0336   -0.0000 C   0  0  0  0  0  0  0  0  0  0  0  0
    2.1932   -4.6324   -0.0000 C   0  0  0  0  0  0  0  0  0  0  0  0
    8.6498    5.3498   -0.0000 C   0  0  0  0  0  0  0  0  0  0  0  0
    7.3585    5.8212   -0.0000 C   0  0  0  0  0  0  0  0  0  0  0  0
    9.9616    4.5914   -0.0000 C   0  0  0  0  0  0  0  0  0  0  0  0
    2.1727   -5.8622   -0.0000 C   0  0  0  0  0  0  0  0  0  0  0  0
    8.6293    6.6206   -0.0000 O   0  0  0  0  0  0  0  0  0  0  0  0
  1  2  2  0  0  0  0
  2  3  1  0  0  0  0
  2  4  1  0  0  0  0
  3  5  2  0  0  0  0
  4  6  2  0  0  0  0
  5  7  1  0  0  0  0
  5  8  1  0  0  0  0
  7  9  1  0  0  0  0
  7 10  1  1  0  0  0
  8 11  1  0  0  0  0
  8 12  1  1  0  0  0
  9 13  1  0  0  0  0
  9 14  1  1  0  0  0
 12 15  1  0  0  0  0
 13 16  1  0  0  0  0
 14 17  1  0  0  0  0
 15 18  1  0  0  0  0
 16 19  1  0  0  0  0
 16 20  1  1  0  0  0
 18 21  1  0  0  0  0
 19 22  1  0  0  0  0
 19 23  1  1  0  0  0
 20 24  1  0  0  0  0
 21 25  1  0  0  0  0
 22 26  2  0  0  0  0
  6  7  1  0  0  0  0
 13 11  1  6  0  0  0
 17 19  1  0  0  0  0
 22 24  1  0  0  0  0
M  END
>  <MolRegNo>
2057845

>  <m>
=

>  <Value>
5

>  <Unit>
nM

>  <Type>
Ki

>  <pValue>
8.3

>  <Ligand Efficiency>
0.44

>  <Binding Efficiency>
23.41

>  <Surface Efficiency>
24.31

>  <Assay Index>
985355

>  <Assay Category>


>  <Assay Organism>
Homo sapiens

>  <Target ID>
65

>  <Target Name>
Cytochrome P450 19A1

>  <Target Organism>
Homo sapiens

>  <Target Description>
Target is a single protein chain

>  <Sequence Accession>
P11511

>  <Reference>


>  <Pubmed ID>
26469743

>  <DOI>
10.1016/j.ejmech.2015.09.038

$$$$
2057984
Actelion Java MolfileCreator 1.0

 21 24  0  0  0  0  0  0  0  0999 V2000
    0.0000   -0.0000   -0.0000 O   0  0  0  0  0  0  0  0  0  0  0  0
   -1.0930    0.6072   -0.0000 C   0  0  0  0  0  0  0  0  0  0  0  0
   -2.3884   -0.1417   -0.0000 C   0  0  0  0  0  0  0  0  0  0  0  0
   -1.1335    2.1050   -0.0000 C   0  0  0  0  0  0  0  0  0  0  0  0
   -3.7040    0.6275   -0.0000 C   0  0  0  0  0  0  0  0  0  0  0  0
   -2.4289    2.8337   -0.0000 C   0  0  0  0  0  0  0  0  0  0  0  0
    0.1214    2.8539   -0.0000 C   0  0  0  0  0  0  0  0  0  0  0  0
   -3.7243    2.1253   -0.0000 C   0  0  0  0  0  0  0  0  0  0  0  0
   -4.9994   -0.1214   -0.0000 C   0  0  0  0  0  0  0  0  0  0  0  0
   -2.4693    4.3517   -0.0000 C   0  0  0  0  0  0  0  0  0  0  0  0
    0.1012    4.3517   -0.0000 C   0  0  0  0  0  0  0  0  0  0  0  0
    2.6717    2.8539   -0.0000 C   0  0  0  0  0  0  0  0  0  0  0  0
   -5.0399    2.8539   -0.0000 C   0  0  0  0  0  0  0  0  0  0  0  0
   -3.7647    3.3802   -0.0000 C   0  0  0  0  0  0  0  0  0  0  0  0
   -6.2948    0.6477   -0.0000 C   0  0  0  0  0  0  0  0  0  0  0  0
   -1.2144    5.1209   -0.0000 C   0  0  0  0  0  0  0  0  0  0  0  0
    1.3561    5.1411   -0.0000 C   0  0  0  0  0  0  0  0  0  0  0  0
    0.0810    5.6066   -0.0000 C   0  0  0  0  0  0  0  0  0  0  0  0
    2.6515    4.3922   -0.0000 C   0  0  0  0  0  0  0  0  0  0  0  0
   -6.3150    2.1455   -0.0000 C   0  0  0  0  0  0  0  0  0  0  0  0
    1.3359    6.3960   -0.0000 O   0  0  0  0  0  0  0  0  0  0  0  0
  1  2  2  0  0  0  0
  2  3  1  0  0  0  0
  4  2  1  1  0  0  0
  3  5  2  0  0  0  0
  4  6  1  0  0  0  0
  4  7  1  0  0  0  0
  5  8  1  0  0  0  0
  5  9  1  0  0  0  0
  6 10  1  6  0  0  0
  7 11  1  0  0  0  0
  7 12  1  6  0  0  0
  8 13  1  0  0  0  0
  8 14  1  6  0  0  0
  9 15  1  0  0  0  0
 10 16  1  0  0  0  0
 11 17  1  0  0  0  0
 11 18  1  6  0  0  0
 12 19  1  0  0  0  0
 13 20  1  0  0  0  0
 17 21  2  0  0  0  0
  6  8  1  0  0  0  0
 11 16  1  0  0  0  0
 15 20  1  0  0  0  0
 17 19  1  0  0  0  0
M  END
>  <MolRegNo>
2057984

>  <m>
=

>  <Value>
143

>  <Unit>
nM

>  <Type>
Ki

>  <pValue>
6.84

>  <Ligand Efficiency>
0.45

>  <Binding Efficiency>
23.9

>  <Surface Efficiency>
20.05

>  <Assay Index>
985355

>  <Assay Category>


>  <Assay Organism>
Homo sapiens

>  <Target ID>
65

>  <Target Name>
Cytochrome P450 19A1

>  <Target Organism>
Homo sapiens

>  <Target Description>
Target is a single protein chain

>  <Sequence Accession>
P11511

>  <Reference>


>  <Pubmed ID>
26469743

>  <DOI>
10.1016/j.ejmech.2015.09.038

$$$$
2058097
Actelion Java MolfileCreator 1.0

 22 25  0  0  0  0  0  0  0  0999 V2000
    0.0000   -0.0000   -0.0000 O   0  0  0  0  0  0  0  0  0  0  0  0
   -1.0919    0.6066   -0.0000 C   0  0  0  0  0  0  0  0  0  0  0  0
   -2.3861   -0.1415   -0.0000 C   0  0  0  0  0  0  0  0  0  0  0  0
   -1.1324    2.1030   -0.0000 C   0  0  0  0  0  0  0  0  0  0  0  0
   -3.7004    0.6269   -0.0000 C   0  0  0  0  0  0  0  0  0  0  0  0
   -2.4265    2.8309   -0.0000 C   0  0  0  0  0  0  0  0  0  0  0  0
    0.1213    2.8512   -0.0000 C   0  0  0  0  0  0  0  0  0  0  0  0
   -3.7207    2.1232   -0.0000 C   0  0  0  0  0  0  0  0  0  0  0  0
   -4.9946   -0.1213   -0.0000 C   0  0  0  0  0  0  0  0  0  0  0  0
   -2.4670    4.3475   -0.0000 C   0  0  0  0  0  0  0  0  0  0  0  0
    0.1011    4.3475   -0.0000 C   0  0  0  0  0  0  0  0  0  0  0  0
    2.6692    2.8512   -0.0000 C   0  0  0  0  0  0  0  0  0  0  0  0
   -5.0350    2.8512   -0.0000 C   0  0  0  0  0  0  0  0  0  0  0  0
   -5.0553    1.3750   -0.0000 C   0  0  0  0  0  0  0  0  0  0  0  0
   -6.2887    0.6471   -0.0000 C   0  0  0  0  0  0  0  0  0  0  0  0
   -1.2133    5.1159   -0.0000 C   0  0  0  0  0  0  0  0  0  0  0  0
    1.3548    5.1361   -0.0000 C   0  0  0  0  0  0  0  0  0  0  0  0
    0.0809    5.6012   -0.0000 C   0  0  0  0  0  0  0  0  0  0  0  0
    2.6490    4.3880   -0.0000 C   0  0  0  0  0  0  0  0  0  0  0  0
   -6.3090    2.1434   -0.0000 C   0  0  0  0  0  0  0  0  0  0  0  0
   -6.1472    2.0019   -0.0000 O   0  0  0  0  0  0  0  0  0  0  0  0
    1.3346    6.3898   -0.0000 O   0  0  0  0  0  0  0  0  0  0  0  0
  1  2  2  0  0  0  0
  2  3  1  0  0  0  0
  4  2  1  1  0  0  0
  3  5  2  0  0  0  0
  4  6  1  0  0  0  0
  4  7  1  0  0  0  0
  5  8  1  0  0  0  0
  5  9  1  0  0  0  0
  6 10  1  6  0  0  0
  7 11  1  0  0  0  0
  7 12  1  6  0  0  0
  8 13  1  0  0  0  0
  8 14  1  6  0  0  0
  9 15  1  0  0  0  0
 10 16  1  0  0  0  0
 11 17  1  0  0  0  0
 11 18  1  6  0  0  0
 12 19  1  0  0  0  0
 13 20  1  0  0  0  0
 14 21  1  0  0  0  0
 17 22  2  0  0  0  0
  6  8  1  0  0  0  0
 11 16  1  0  0  0  0
 15 20  1  0  0  0  0
 17 19  1  0  0  0  0
M  END
>  <MolRegNo>
2058097

>  <m>
=

>  <Value>
11100

>  <Unit>
nM

>  <Type>
Ki

>  <pValue>
4.96

>  <Ligand Efficiency>
0.31

>  <Binding Efficiency>
16.38

>  <Surface Efficiency>
9.11

>  <Assay Index>
985355

>  <Assay Category>


>  <Assay Organism>
Homo sapiens

>  <Target ID>
65

>  <Target Name>
Cytochrome P450 19A1

>  <Target Organism>
Homo sapiens

>  <Target Description>
Target is a single protein chain

>  <Sequence Accession>
P11511

>  <Reference>


>  <Pubmed ID>
26469743

>  <DOI>
10.1016/j.ejmech.2015.09.038

$$$$
2058100
Actelion Java MolfileCreator 1.0

 22 25  0  0  0  0  0  0  0  0999 V2000
    0.0000   -0.0000   -0.0000 O   0  0  0  0  0  0  0  0  0  0  0  0
    1.0616    0.6329   -0.0000 C   0  0  0  0  0  0  0  0  0  0  0  0
    2.3274   -0.1021   -0.0000 C   0  0  0  0  0  0  0  0  0  0  0  0
    1.0412    2.1437   -0.0000 C   0  0  0  0  0  0  0  0  0  0  0  0
    3.5932    0.6941   -0.0000 C   0  0  0  0  0  0  0  0  0  0  0  0
    2.2866    2.8990   -0.0000 C   0  0  0  0  0  0  0  0  0  0  0  0
    3.5728    2.2049   -0.0000 C   0  0  0  0  0  0  0  0  0  0  0  0
    4.8794   -0.0408   -0.0000 C   0  0  0  0  0  0  0  0  0  0  0  0
    4.8386    2.9603   -0.0000 C   0  0  0  0  0  0  0  0  0  0  0  0
    2.2253    1.4495   -0.0000 C   0  0  0  0  0  0  0  0  0  0  0  0
    6.1452    0.7554   -0.0000 C   0  0  0  0  0  0  0  0  0  0  0  0
    6.1043    2.2662   -0.0000 C   0  0  0  0  0  0  0  0  0  0  0  0
    4.7977    4.4915   -0.0000 C   0  0  0  0  0  0  0  0  0  0  0  0
    1.1229    2.0824   -0.0000 C   0  0  0  0  0  0  0  0  0  0  0  0
    7.3701    3.0215   -0.0000 C   0  0  0  0  0  0  0  0  0  0  0  0
    6.0635    5.2673   -0.0000 C   0  0  0  0  0  0  0  0  0  0  0  0
    7.3497    4.5323   -0.0000 C   0  0  0  0  0  0  0  0  0  0  0  0
    9.9425    3.0215   -0.0000 C   0  0  0  0  0  0  0  0  0  0  0  0
    8.6155    5.3285   -0.0000 C   0  0  0  0  0  0  0  0  0  0  0  0
    7.3293    5.7981   -0.0000 C   0  0  0  0  0  0  0  0  0  0  0  0
    9.9221    4.5731   -0.0000 C   0  0  0  0  0  0  0  0  0  0  0  0
    8.5951    6.5943   -0.0000 O   0  0  0  0  0  0  0  0  0  0  0  0
  1  2  2  0  0  0  0
  2  3  1  0  0  0  0
  2  4  1  0  0  0  0
  3  5  2  0  0  0  0
  4  6  1  0  0  0  0
  5  7  1  0  0  0  0
  5  8  1  0  0  0  0
  7  9  1  0  0  0  0
  7 10  1  6  0  0  0
  8 11  1  0  0  0  0
  9 12  1  0  0  0  0
  9 13  1  6  0  0  0
 10 14  1  0  0  0  0
 12 15  1  0  0  0  0
 13 16  1  0  0  0  0
 15 17  1  0  0  0  0
 15 18  1  6  0  0  0
 17 19  1  0  0  0  0
 17 20  1  6  0  0  0
 18 21  1  0  0  0  0
 19 22  2  0  0  0  0
  6  7  1  0  0  0  0
 12 11  1  1  0  0  0
 16 17  1  0  0  0  0
 19 21  1  0  0  0  0
M  END
>  <MolRegNo>
2058100

>  <m>
=

>  <Value>
8.2

>  <Unit>
nM

>  <Type>
Ki

>  <pValue>
8.09

>  <Ligand Efficiency>
0.5

>  <Binding Efficiency>
26.91

>  <Surface Efficiency>
23.69

>  <Assay Index>
985355

>  <Assay Category>


>  <Assay Organism>
Homo sapiens

>  <Target ID>
65

>  <Target Name>
Cytochrome P450 19A1

>  <Target Organism>
Homo sapiens

>  <Target Description>
Target is a single protein chain

>  <Sequence Accession>
P11511

>  <Reference>


>  <Pubmed ID>
26469743

>  <DOI>
10.1016/j.ejmech.2015.09.038

$$$$
2058101
Actelion Java MolfileCreator 1.0

 22 25  0  0  0  0  0  0  0  0999 V2000
    0.0000   -0.0000   -0.0000 O   0  0  0  0  0  0  0  0  0  0  0  0
    1.0616    0.6329   -0.0000 C   0  0  0  0  0  0  0  0  0  0  0  0
    2.3274   -0.1021   -0.0000 C   0  0  0  0  0  0  0  0  0  0  0  0
    1.0412    2.1437   -0.0000 C   0  0  0  0  0  0  0  0  0  0  0  0
    3.5932    0.6941   -0.0000 C   0  0  0  0  0  0  0  0  0  0  0  0
    2.2866    2.8990   -0.0000 C   0  0  0  0  0  0  0  0  0  0  0  0
    3.5728    2.2049   -0.0000 C   0  0  0  0  0  0  0  0  0  0  0  0
    4.8794   -0.0408   -0.0000 C   0  0  0  0  0  0  0  0  0  0  0  0
    4.8386    2.9603   -0.0000 C   0  0  0  0  0  0  0  0  0  0  0  0
    2.2253    1.4495   -0.0000 C   0  0  0  0  0  0  0  0  0  0  0  0
    6.1452    0.7554   -0.0000 C   0  0  0  0  0  0  0  0  0  0  0  0
    6.1043    2.2662   -0.0000 C   0  0  0  0  0  0  0  0  0  0  0  0
    4.7977    4.4915   -0.0000 C   0  0  0  0  0  0  0  0  0  0  0  0
    1.1229    2.0824   -0.0000 C   0  0  0  0  0  0  0  0  0  0  0  0
    7.3701    3.0215   -0.0000 C   0  0  0  0  0  0  0  0  0  0  0  0
    6.0635    5.2673   -0.0000 C   0  0  0  0  0  0  0  0  0  0  0  0
    7.3497    4.5323   -0.0000 C   0  0  0  0  0  0  0  0  0  0  0  0
    9.9425    3.0215   -0.0000 C   0  0  0  0  0  0  0  0  0  0  0  0
    8.6155    5.3285   -0.0000 C   0  0  0  0  0  0  0  0  0  0  0  0
    7.3293    5.7981   -0.0000 C   0  0  0  0  0  0  0  0  0  0  0  0
    9.9221    4.5731   -0.0000 C   0  0  0  0  0  0  0  0  0  0  0  0
    8.5951    6.5943   -0.0000 O   0  0  0  0  0  0  0  0  0  0  0  0
  1  2  2  0  0  0  0
  2  3  1  0  0  0  0
  2  4  1  0  0  0  0
  3  5  2  0  0  0  0
  4  6  2  0  0  0  0
  5  7  1  0  0  0  0
  5  8  1  0  0  0  0
  7  9  1  0  0  0  0
  7 10  1  1  0  0  0
  8 11  1  0  0  0  0
  9 12  1  0  0  0  0
  9 13  1  1  0  0  0
 10 14  1  0  0  0  0
 12 15  1  0  0  0  0
 13 16  1  0  0  0  0
 15 17  1  0  0  0  0
 15 18  1  1  0  0  0
 17 19  1  0  0  0  0
 17 20  1  1  0  0  0
 18 21  1  0  0  0  0
 19 22  2  0  0  0  0
  6  7  1  0  0  0  0
 12 11  1  6  0  0  0
 16 17  1  0  0  0  0
 19 21  1  0  0  0  0
M  END
>  <MolRegNo>
2058101

>  <m>
=

>  <Value>
8.2

>  <Unit>
nM

>  <Type>
Ki

>  <pValue>
8.09

>  <Ligand Efficiency>
0.5

>  <Binding Efficiency>
27.1

>  <Surface Efficiency>
23.69

>  <Assay Index>
985355

>  <Assay Category>


>  <Assay Organism>
Homo sapiens

>  <Target ID>
65

>  <Target Name>
Cytochrome P450 19A1

>  <Target Organism>
Homo sapiens

>  <Target Description>
Target is a single protein chain

>  <Sequence Accession>
P11511

>  <Reference>


>  <Pubmed ID>
26469743

>  <DOI>
10.1016/j.ejmech.2015.09.038

$$$$
2058102
Actelion Java MolfileCreator 1.0

 22 25  0  0  0  0  0  0  0  0999 V2000
    0.0000   -0.0000   -0.0000 O   0  0  0  0  0  0  0  0  0  0  0  0
    1.0616    0.6329   -0.0000 C   0  0  0  0  0  0  0  0  0  0  0  0
    2.3274   -0.1021   -0.0000 C   0  0  0  0  0  0  0  0  0  0  0  0
    1.0412    2.1437   -0.0000 C   0  0  0  0  0  0  0  0  0  0  0  0
    3.5932    0.6941   -0.0000 C   0  0  0  0  0  0  0  0  0  0  0  0
    2.2866    2.8990   -0.0000 C   0  0  0  0  0  0  0  0  0  0  0  0
    4.8794   -0.0408   -0.0000 C   0  0  0  0  0  0  0  0  0  0  0  0
    3.5728    2.2049   -0.0000 C   0  0  0  0  0  0  0  0  0  0  0  0
    6.1452    0.7554   -0.0000 C   0  0  0  0  0  0  0  0  0  0  0  0
    4.8386    2.9603   -0.0000 C   0  0  0  0  0  0  0  0  0  0  0  0
    2.2253    1.4495   -0.0000 C   0  0  0  0  0  0  0  0  0  0  0  0
    6.1043    2.2662   -0.0000 C   0  0  0  0  0  0  0  0  0  0  0  0
    4.7977    4.4915   -0.0000 C   0  0  0  0  0  0  0  0  0  0  0  0
    1.1229    2.0824   -0.0000 C   0  0  0  0  0  0  0  0  0  0  0  0
    7.3701    3.0215   -0.0000 C   0  0  0  0  0  0  0  0  0  0  0  0
    6.0635    5.2673   -0.0000 C   0  0  0  0  0  0  0  0  0  0  0  0
    7.3497    4.5323   -0.0000 C   0  0  0  0  0  0  0  0  0  0  0  0
    9.9425    3.0215   -0.0000 C   0  0  0  0  0  0  0  0  0  0  0  0
    8.6155    5.3285   -0.0000 C   0  0  0  0  0  0  0  0  0  0  0  0
    7.3293    5.7981   -0.0000 C   0  0  0  0  0  0  0  0  0  0  0  0
    9.9221    4.5731   -0.0000 C   0  0  0  0  0  0  0  0  0  0  0  0
    8.5951    6.5943   -0.0000 O   0  0  0  0  0  0  0  0  0  0  0  0
  1  2  2  0  0  0  0
  2  3  1  0  0  0  0
  2  4  1  0  0  0  0
  3  5  2  0  0  0  0
  4  6  1  0  0  0  0
  5  7  1  0  0  0  0
  5  8  1  0  0  0  0
  7  9  2  0  0  0  0
  8 10  1  0  0  0  0
  8 11  1  6  0  0  0
 12  9  1  1  0  0  0
 10 13  1  6  0  0  0
 11 14  1  0  0  0  0
 12 15  1  0  0  0  0
 13 16  1  0  0  0  0
 15 17  1  0  0  0  0
 15 18  1  6  0  0  0
 17 19  1  0  0  0  0
 17 20  1  6  0  0  0
 18 21  1  0  0  0  0
 19 22  2  0  0  0  0
  6  8  1  0  0  0  0
 10 12  1  0  0  0  0
 16 17  1  0  0  0  0
 19 21  1  0  0  0  0
M  END
>  <MolRegNo>
2058102

>  <m>
=

>  <Value>
8.2

>  <Unit>
nM

>  <Type>
Ki

>  <pValue>
8.09

>  <Ligand Efficiency>
0.5

>  <Binding Efficiency>
27.1

>  <Surface Efficiency>
23.69

>  <Assay Index>
985355

>  <Assay Category>


>  <Assay Organism>
Homo sapiens

>  <Target ID>
65

>  <Target Name>
Cytochrome P450 19A1

>  <Target Organism>
Homo sapiens

>  <Target Description>
Target is a single protein chain

>  <Sequence Accession>
P11511

>  <Reference>


>  <Pubmed ID>
26469743

>  <DOI>
10.1016/j.ejmech.2015.09.038

$$$$
2058103
Actelion Java MolfileCreator 1.0

 22 25  0  0  0  0  0  0  0  0999 V2000
    0.0000   -0.0000   -0.0000 O   0  0  0  0  0  0  0  0  0  0  0  0
    1.0616    0.6329   -0.0000 C   0  0  0  0  0  0  0  0  0  0  0  0
    2.3274   -0.1021   -0.0000 C   0  0  0  0  0  0  0  0  0  0  0  0
    1.0412    2.1437   -0.0000 C   0  0  0  0  0  0  0  0  0  0  0  0
    3.5932    0.6941   -0.0000 C   0  0  0  0  0  0  0  0  0  0  0  0
    2.2866    2.8990   -0.0000 C   0  0  0  0  0  0  0  0  0  0  0  0
    4.8794   -0.0408   -0.0000 C   0  0  0  0  0  0  0  0  0  0  0  0
    3.5728    2.2049   -0.0000 C   0  0  0  0  0  0  0  0  0  0  0  0
    6.1452    0.7554   -0.0000 C   0  0  0  0  0  0  0  0  0  0  0  0
    4.8386    2.9603   -0.0000 C   0  0  0  0  0  0  0  0  0  0  0  0
    2.2253    1.4495   -0.0000 C   0  0  0  0  0  0  0  0  0  0  0  0
    6.1043    2.2662   -0.0000 C   0  0  0  0  0  0  0  0  0  0  0  0
    4.7977    4.4915   -0.0000 C   0  0  0  0  0  0  0  0  0  0  0  0
    1.1229    2.0824   -0.0000 C   0  0  0  0  0  0  0  0  0  0  0  0
    7.3701    3.0215   -0.0000 C   0  0  0  0  0  0  0  0  0  0  0  0
    6.0635    5.2673   -0.0000 C   0  0  0  0  0  0  0  0  0  0  0  0
    7.3497    4.5323   -0.0000 C   0  0  0  0  0  0  0  0  0  0  0  0
    9.9425    3.0215   -0.0000 C   0  0  0  0  0  0  0  0  0  0  0  0
    8.6155    5.3285   -0.0000 C   0  0  0  0  0  0  0  0  0  0  0  0
    7.3293    5.7981   -0.0000 C   0  0  0  0  0  0  0  0  0  0  0  0
    9.9221    4.5731   -0.0000 C   0  0  0  0  0  0  0  0  0  0  0  0
    8.5951    6.5943   -0.0000 O   0  0  0  0  0  0  0  0  0  0  0  0
  1  2  2  0  0  0  0
  2  3  1  0  0  0  0
  2  4  1  0  0  0  0
  3  5  2  0  0  0  0
  4  6  2  0  0  0  0
  5  7  1  0  0  0  0
  5  8  1  0  0  0  0
  7  9  2  0  0  0  0
  8 10  1  0  0  0  0
  8 11  1  1  0  0  0
 12  9  1  6  0  0  0
 10 13  1  1  0  0  0
 11 14  1  0  0  0  0
 12 15  1  0  0  0  0
 13 16  1  0  0  0  0
 15 17  1  0  0  0  0
 15 18  1  1  0  0  0
 17 19  1  0  0  0  0
 17 20  1  1  0  0  0
 18 21  1  0  0  0  0
 19 22  2  0  0  0  0
  6  8  1  0  0  0  0
 10 12  1  0  0  0  0
 16 17  1  0  0  0  0
 19 21  1  0  0  0  0
M  END
>  <MolRegNo>
2058103

>  <m>
=

>  <Value>
8.2

>  <Unit>
nM

>  <Type>
Ki

>  <pValue>
8.09

>  <Ligand Efficiency>
0.5

>  <Binding Efficiency>
27.28

>  <Surface Efficiency>
23.69

>  <Assay Index>
985355

>  <Assay Category>


>  <Assay Organism>
Homo sapiens

>  <Target ID>
65

>  <Target Name>
Cytochrome P450 19A1

>  <Target Organism>
Homo sapiens

>  <Target Description>
Target is a single protein chain

>  <Sequence Accession>
P11511

>  <Reference>


>  <Pubmed ID>
26469743

>  <DOI>
10.1016/j.ejmech.2015.09.038

$$$$
2058236
Actelion Java MolfileCreator 1.0

 21 24  0  0  0  0  0  0  0  0999 V2000
    0.0000   -0.0000   -0.0000 O   0  0  0  0  0  0  0  0  0  0  0  0
   -1.0930    0.6072   -0.0000 C   0  0  0  0  0  0  0  0  0  0  0  0
   -2.3884   -0.1417   -0.0000 C   0  0  0  0  0  0  0  0  0  0  0  0
   -1.1335    2.1050   -0.0000 C   0  0  0  0  0  0  0  0  0  0  0  0
   -3.7040    0.6275   -0.0000 C   0  0  0  0  0  0  0  0  0  0  0  0
   -2.4289    2.8337   -0.0000 C   0  0  0  0  0  0  0  0  0  0  0  0
    0.1214    2.8539   -0.0000 C   0  0  0  0  0  0  0  0  0  0  0  0
   -3.7243    2.1253   -0.0000 C   0  0  0  0  0  0  0  0  0  0  0  0
   -4.9994   -0.1214   -0.0000 C   0  0  0  0  0  0  0  0  0  0  0  0
   -2.4693    4.3517   -0.0000 C   0  0  0  0  0  0  0  0  0  0  0  0
    0.1012    4.3517   -0.0000 C   0  0  0  0  0  0  0  0  0  0  0  0
    2.6717    2.8539   -0.0000 C   0  0  0  0  0  0  0  0  0  0  0  0
   -3.7647    3.3802   -0.0000 O   0  0  0  0  0  0  0  0  0  0  0  0
   -5.0399    2.8539   -0.0000 C   0  0  0  0  0  0  0  0  0  0  0  0
   -6.2948    0.6477   -0.0000 C   0  0  0  0  0  0  0  0  0  0  0  0
   -1.2144    5.1209   -0.0000 C   0  0  0  0  0  0  0  0  0  0  0  0
    1.3561    5.1411   -0.0000 C   0  0  0  0  0  0  0  0  0  0  0  0
    0.0810    5.6066   -0.0000 C   0  0  0  0  0  0  0  0  0  0  0  0
    2.6515    4.3922   -0.0000 C   0  0  0  0  0  0  0  0  0  0  0  0
   -6.3150    2.1455   -0.0000 C   0  0  0  0  0  0  0  0  0  0  0  0
    1.3359    6.3960   -0.0000 O   0  0  0  0  0  0  0  0  0  0  0  0
  1  2  2  0  0  0  0
  2  3  1  0  0  0  0
  4  2  1  6  0  0  0
  3  5  2  0  0  0  0
  4  6  1  0  0  0  0
  4  7  1  0  0  0  0
  5  8  1  0  0  0  0
  5  9  1  0  0  0  0
  6 10  1  1  0  0  0
  7 11  1  0  0  0  0
  7 12  1  1  0  0  0
  8 13  1  1  0  0  0
  8 14  1  0  0  0  0
  9 15  1  0  0  0  0
 10 16  1  0  0  0  0
 11 17  1  0  0  0  0
 11 18  1  1  0  0  0
 12 19  1  0  0  0  0
 14 20  1  0  0  0  0
 17 21  2  0  0  0  0
  6  8  1  0  0  0  0
 11 16  1  0  0  0  0
 15 20  1  0  0  0  0
 17 19  1  0  0  0  0
M  END
>  <MolRegNo>
2058236

>  <m>
=

>  <Value>
1100

>  <Unit>
nM

>  <Type>
Ki

>  <pValue>
5.96

>  <Ligand Efficiency>
0.39

>  <Binding Efficiency>
20.66

>  <Surface Efficiency>
10.96

>  <Assay Index>
985355

>  <Assay Category>


>  <Assay Organism>
Homo sapiens

>  <Target ID>
65

>  <Target Name>
Cytochrome P450 19A1

>  <Target Organism>
Homo sapiens

>  <Target Description>
Target is a single protein chain

>  <Sequence Accession>
P11511

>  <Reference>


>  <Pubmed ID>
26469743

>  <DOI>
10.1016/j.ejmech.2015.09.038

$$$$
2058237
Actelion Java MolfileCreator 1.0

 24 27  0  0  0  0  0  0  0  0999 V2000
    0.0000   -0.0000   -0.0000 O   0  0  0  0  0  0  0  0  0  0  0  0
   -1.0978    0.6099   -0.0000 C   0  0  0  0  0  0  0  0  0  0  0  0
   -2.3989   -0.1423   -0.0000 C   0  0  0  0  0  0  0  0  0  0  0  0
   -1.1385    2.1143   -0.0000 C   0  0  0  0  0  0  0  0  0  0  0  0
   -3.7203    0.6302   -0.0000 C   0  0  0  0  0  0  0  0  0  0  0  0
   -2.4395    2.8461   -0.0000 C   0  0  0  0  0  0  0  0  0  0  0  0
    0.1220    2.8665   -0.0000 C   0  0  0  0  0  0  0  0  0  0  0  0
   -3.7406    2.1346   -0.0000 C   0  0  0  0  0  0  0  0  0  0  0  0
   -5.0214   -0.1220   -0.0000 C   0  0  0  0  0  0  0  0  0  0  0  0
   -2.4802    4.3708   -0.0000 C   0  0  0  0  0  0  0  0  0  0  0  0
    0.1016    4.3708   -0.0000 C   0  0  0  0  0  0  0  0  0  0  0  0
    2.6835    2.8665   -0.0000 C   0  0  0  0  0  0  0  0  0  0  0  0
   -5.0824    1.3824   -0.0000 O   0  0  0  0  0  0  0  0  0  0  0  0
   -5.0620    2.8665   -0.0000 C   0  0  0  0  0  0  0  0  0  0  0  0
   -6.3225    0.6505   -0.0000 C   0  0  0  0  0  0  0  0  0  0  0  0
   -1.2198    5.1434   -0.0000 C   0  0  0  0  0  0  0  0  0  0  0  0
    1.3621    5.1637   -0.0000 C   0  0  0  0  0  0  0  0  0  0  0  0
    0.0813    5.6313   -0.0000 C   0  0  0  0  0  0  0  0  0  0  0  0
    2.6632    4.4115   -0.0000 C   0  0  0  0  0  0  0  0  0  0  0  0
   -6.4445    2.1549   -0.0000 C   0  0  0  0  0  0  0  0  0  0  0  0
   -6.3428    2.1549   -0.0000 C   0  0  0  0  0  0  0  0  0  0  0  0
    1.3417    6.4241   -0.0000 O   0  0  0  0  0  0  0  0  0  0  0  0
   -7.5219    1.5450   -0.0000 O   0  0  0  0  0  0  0  0  0  0  0  0
   -6.4648    3.4154   -0.0000 C   0  0  0  0  0  0  0  0  0  0  0  0
  1  2  2  0  0  0  0
  2  3  1  0  0  0  0
  4  2  1  6  0  0  0
  3  5  2  0  0  0  0
  4  6  1  0  0  0  0
  4  7  1  0  0  0  0
  5  8  1  0  0  0  0
  5  9  1  0  0  0  0
  6 10  1  1  0  0  0
  7 11  1  0  0  0  0
  7 12  1  1  0  0  0
  8 13  1  1  0  0  0
  8 14  1  0  0  0  0
  9 15  1  0  0  0  0
 10 16  1  0  0  0  0
 11 17  1  0  0  0  0
 11 18  1  1  0  0  0
 12 19  1  0  0  0  0
 13 20  1  0  0  0  0
 14 21  1  0  0  0  0
 17 22  2  0  0  0  0
 20 23  2  0  0  0  0
 20 24  1  0  0  0  0
  6  8  1  0  0  0  0
 11 16  1  0  0  0  0
 15 21  1  0  0  0  0
 17 19  1  0  0  0  0
M  END
>  <MolRegNo>
2058237

>  <m>
=

>  <Value>
1100

>  <Unit>
nM

>  <Type>
Ki

>  <pValue>
5.96

>  <Ligand Efficiency>
0.34

>  <Binding Efficiency>
18.03

>  <Surface Efficiency>
9.86

>  <Assay Index>
985355

>  <Assay Category>


>  <Assay Organism>
Homo sapiens

>  <Target ID>
65

>  <Target Name>
Cytochrome P450 19A1

>  <Target Organism>
Homo sapiens

>  <Target Description>
Target is a single protein chain

>  <Sequence Accession>
P11511

>  <Reference>


>  <Pubmed ID>
26469743

>  <DOI>
10.1016/j.ejmech.2015.09.038

$$$$
2057820
Actelion Java MolfileCreator 1.0

 25 28  0  0  0  0  0  0  0  0999 V2000
    0.0000   -0.0000   -0.0000 S   0  0  0  0  0  0  0  0  0  0  0  0
   -0.0206    1.5837   -0.0000 C   0  0  0  0  0  0  0  0  0  0  0  0
   -1.3780   -0.7610   -0.0000 C   0  0  0  0  0  0  0  0  0  0  0  0
   -1.3369    2.3652   -0.0000 C   0  0  0  0  0  0  0  0  0  0  0  0
    1.2546    2.3858   -0.0000 C   0  0  0  0  0  0  0  0  0  0  0  0
   -1.3986   -1.9950   -0.0000 O   0  0  0  0  0  0  0  0  0  0  0  0
   -2.4681   -0.1234   -0.0000 C   0  0  0  0  0  0  0  0  0  0  0  0
   -2.4475    1.7688   -0.0000 O   0  0  0  0  0  0  0  0  0  0  0  0
   -1.3574    3.8872   -0.0000 C   0  0  0  0  0  0  0  0  0  0  0  0
    1.2340    3.9078   -0.0000 C   0  0  0  0  0  0  0  0  0  0  0  0
    2.5504    1.6454   -0.0000 C   0  0  0  0  0  0  0  0  0  0  0  0
   -0.1028    4.6482   -0.0000 C   0  0  0  0  0  0  0  0  0  0  0  0
    2.5092    4.6688   -0.0000 C   0  0  0  0  0  0  0  0  0  0  0  0
    1.1929    5.1830   -0.0000 C   0  0  0  0  0  0  0  0  0  0  0  0
    3.8255    2.4475   -0.0000 C   0  0  0  0  0  0  0  0  0  0  0  0
    3.7844    3.9695   -0.0000 C   0  0  0  0  0  0  0  0  0  0  0  0
    2.4681    6.2113   -0.0000 C   0  0  0  0  0  0  0  0  0  0  0  0
    5.0596    4.7305   -0.0000 C   0  0  0  0  0  0  0  0  0  0  0  0
    3.7433    6.9929   -0.0000 C   0  0  0  0  0  0  0  0  0  0  0  0
    5.0390    6.2525   -0.0000 C   0  0  0  0  0  0  0  0  0  0  0  0
    7.6511    4.7305   -0.0000 C   0  0  0  0  0  0  0  0  0  0  0  0
    6.3142    7.0546   -0.0000 C   0  0  0  0  0  0  0  0  0  0  0  0
    5.0184    7.5277   -0.0000 C   0  0  0  0  0  0  0  0  0  0  0  0
    7.6305    6.2936   -0.0000 C   0  0  0  0  0  0  0  0  0  0  0  0
    6.2936    8.3298   -0.0000 O   0  0  0  0  0  0  0  0  0  0  0  0
  1  2  1  0  0  0  0
  1  3  1  0  0  0  0
  2  4  1  0  0  0  0
  2  5  2  0  0  0  0
  3  6  2  0  0  0  0
  3  7  1  0  0  0  0
  4  8  2  0  0  0  0
  4  9  1  0  0  0  0
  5 10  1  0  0  0  0
  5 11  1  0  0  0  0
  9 12  1  0  0  0  0
 10 13  1  0  0  0  0
 10 14  1  6  0  0  0
 11 15  1  0  0  0  0
 13 16  1  0  0  0  0
 13 17  1  6  0  0  0
 16 18  1  0  0  0  0
 17 19  1  0  0  0  0
 18 20  1  0  0  0  0
 18 21  1  6  0  0  0
 20 22  1  0  0  0  0
 20 23  1  6  0  0  0
 21 24  1  0  0  0  0
 22 25  2  0  0  0  0
 10 12  1  0  0  0  0
 16 15  1  1  0  0  0
 19 20  1  0  0  0  0
 22 24  1  0  0  0  0
M  END
>  <MolRegNo>
2057820

>  <m>
=

>  <Value>
36

>  <Unit>
nM

>  <Type>
Ki

>  <pValue>
7.44

>  <Ligand Efficiency>
0.41

>  <Binding Efficiency>
20.65

>  <Surface Efficiency>
14.54

>  <Assay Index>
985527

>  <Assay Category>


>  <Assay Organism>
Homo sapiens

>  <Target ID>
65

>  <Target Name>
Cytochrome P450 19A1

>  <Target Organism>
Homo sapiens

>  <Target Description>
Target is a single protein chain

>  <Sequence Accession>
P11511

>  <Reference>


>  <Pubmed ID>
26469743

>  <DOI>
10.1016/j.ejmech.2015.09.038

$$$$
2057821
Actelion Java MolfileCreator 1.0

 23 26  0  0  0  0  0  0  0  0999 V2000
    0.0000   -0.0000   -0.0000 S   0  0  0  0  0  0  0  0  0  0  0  0
   -0.0205    1.5760   -0.0000 C   0  0  0  0  0  0  0  0  0  0  0  0
   -1.1053   -0.5936   -0.0000 C   0  0  0  0  0  0  0  0  0  0  0  0
   -1.3304    2.3538   -0.0000 C   0  0  0  0  0  0  0  0  0  0  0  0
    1.2485    2.3743   -0.0000 C   0  0  0  0  0  0  0  0  0  0  0  0
   -2.4357    1.7602   -0.0000 O   0  0  0  0  0  0  0  0  0  0  0  0
   -1.3509    3.8684   -0.0000 C   0  0  0  0  0  0  0  0  0  0  0  0
    1.2281    3.8889   -0.0000 C   0  0  0  0  0  0  0  0  0  0  0  0
    2.5380    1.6374   -0.0000 C   0  0  0  0  0  0  0  0  0  0  0  0
   -0.1023    4.6258   -0.0000 C   0  0  0  0  0  0  0  0  0  0  0  0
    2.4971    4.6462   -0.0000 C   0  0  0  0  0  0  0  0  0  0  0  0
    1.1871    5.1579   -0.0000 C   0  0  0  0  0  0  0  0  0  0  0  0
    3.8070    2.4357   -0.0000 C   0  0  0  0  0  0  0  0  0  0  0  0
    3.7661    3.9503   -0.0000 C   0  0  0  0  0  0  0  0  0  0  0  0
    2.4562    6.1813   -0.0000 C   0  0  0  0  0  0  0  0  0  0  0  0
    5.0351    4.7076   -0.0000 C   0  0  0  0  0  0  0  0  0  0  0  0
    3.7252    6.9591   -0.0000 C   0  0  0  0  0  0  0  0  0  0  0  0
    5.0146    6.2223   -0.0000 C   0  0  0  0  0  0  0  0  0  0  0  0
    7.6141    4.7076   -0.0000 C   0  0  0  0  0  0  0  0  0  0  0  0
    6.2837    7.0205   -0.0000 C   0  0  0  0  0  0  0  0  0  0  0  0
    4.9942    7.4913   -0.0000 C   0  0  0  0  0  0  0  0  0  0  0  0
    7.5936    6.2632   -0.0000 C   0  0  0  0  0  0  0  0  0  0  0  0
    6.2632    8.2895   -0.0000 O   0  0  0  0  0  0  0  0  0  0  0  0
  1  2  1  0  0  0  0
  1  3  1  0  0  0  0
  2  4  1  0  0  0  0
  2  5  2  0  0  0  0
  4  6  2  0  0  0  0
  4  7  1  0  0  0  0
  5  8  1  0  0  0  0
  5  9  1  0  0  0  0
  7 10  1  0  0  0  0
  8 11  1  0  0  0  0
  8 12  1  6  0  0  0
  9 13  1  0  0  0  0
 11 14  1  0  0  0  0
 11 15  1  6  0  0  0
 14 16  1  0  0  0  0
 15 17  1  0  0  0  0
 16 18  1  0  0  0  0
 16 19  1  6  0  0  0
 18 20  1  0  0  0  0
 18 21  1  6  0  0  0
 19 22  1  0  0  0  0
 20 23  2  0  0  0  0
  8 10  1  0  0  0  0
 14 13  1  1  0  0  0
 17 18  1  0  0  0  0
 20 22  1  0  0  0  0
M  END
>  <MolRegNo>
2057821

>  <m>
=

>  <Value>
36

>  <Unit>
nM

>  <Type>
Ki

>  <pValue>
7.44

>  <Ligand Efficiency>
0.44

>  <Binding Efficiency>
22.39

>  <Surface Efficiency>
21.8

>  <Assay Index>
985527

>  <Assay Category>


>  <Assay Organism>
Homo sapiens

>  <Target ID>
65

>  <Target Name>
Cytochrome P450 19A1

>  <Target Organism>
Homo sapiens

>  <Target Description>
Target is a single protein chain

>  <Sequence Accession>
P11511

>  <Reference>


>  <Pubmed ID>
26469743

>  <DOI>
10.1016/j.ejmech.2015.09.038

$$$$
2057822
Actelion Java MolfileCreator 1.0

 24 27  0  0  0  0  0  0  0  0999 V2000
    0.0000   -0.0000   -0.0000 S   0  0  0  0  0  0  0  0  0  0  0  0
   -0.0204    1.5745   -0.0000 C   0  0  0  0  0  0  0  0  0  0  0  0
   -1.3700   -0.7566   -0.0000 C   0  0  0  0  0  0  0  0  0  0  0  0
   -1.3291    2.3515   -0.0000 C   0  0  0  0  0  0  0  0  0  0  0  0
    1.2473    2.3719   -0.0000 C   0  0  0  0  0  0  0  0  0  0  0  0
   -1.3904   -1.9834   -0.0000 C   0  0  0  0  0  0  0  0  0  0  0  0
   -2.4333    1.7585   -0.0000 O   0  0  0  0  0  0  0  0  0  0  0  0
   -1.3495    3.8646   -0.0000 C   0  0  0  0  0  0  0  0  0  0  0  0
    1.2269    3.8850   -0.0000 C   0  0  0  0  0  0  0  0  0  0  0  0
    2.5355    1.6358   -0.0000 C   0  0  0  0  0  0  0  0  0  0  0  0
   -0.1022    4.6212   -0.0000 C   0  0  0  0  0  0  0  0  0  0  0  0
    2.4946    4.6416   -0.0000 C   0  0  0  0  0  0  0  0  0  0  0  0
    1.1860    5.1528   -0.0000 C   0  0  0  0  0  0  0  0  0  0  0  0
    3.8033    2.4333   -0.0000 C   0  0  0  0  0  0  0  0  0  0  0  0
    3.7624    3.9464   -0.0000 C   0  0  0  0  0  0  0  0  0  0  0  0
    2.4537    6.1752   -0.0000 C   0  0  0  0  0  0  0  0  0  0  0  0
    5.0301    4.7030   -0.0000 C   0  0  0  0  0  0  0  0  0  0  0  0
    3.7215    6.9522   -0.0000 C   0  0  0  0  0  0  0  0  0  0  0  0
    5.0097    6.2161   -0.0000 C   0  0  0  0  0  0  0  0  0  0  0  0
    7.6065    4.7030   -0.0000 C   0  0  0  0  0  0  0  0  0  0  0  0
    6.2774    7.0135   -0.0000 C   0  0  0  0  0  0  0  0  0  0  0  0
    4.9892    7.4838   -0.0000 C   0  0  0  0  0  0  0  0  0  0  0  0
    7.5861    6.2570   -0.0000 C   0  0  0  0  0  0  0  0  0  0  0  0
    6.2570    8.2813   -0.0000 O   0  0  0  0  0  0  0  0  0  0  0  0
  1  2  1  0  0  0  0
  1  3  1  0  0  0  0
  2  4  1  0  0  0  0
  2  5  2  0  0  0  0
  3  6  1  0  0  0  0
  4  7  2  0  0  0  0
  4  8  1  0  0  0  0
  5  9  1  0  0  0  0
  5 10  1  0  0  0  0
  8 11  1  0  0  0  0
  9 12  1  0  0  0  0
  9 13  1  6  0  0  0
 10 14  1  0  0  0  0
 12 15  1  0  0  0  0
 12 16  1  6  0  0  0
 15 17  1  0  0  0  0
 16 18  1  0  0  0  0
 17 19  1  0  0  0  0
 17 20  1  6  0  0  0
 19 21  1  0  0  0  0
 19 22  1  6  0  0  0
 20 23  1  0  0  0  0
 21 24  2  0  0  0  0
  9 11  1  0  0  0  0
 15 14  1  1  0  0  0
 18 19  1  0  0  0  0
 21 23  1  0  0  0  0
M  END
>  <MolRegNo>
2057822

>  <m>
=

>  <Value>
36

>  <Unit>
nM

>  <Type>
Ki

>  <pValue>
7.44

>  <Ligand Efficiency>
0.42

>  <Binding Efficiency>
21.48

>  <Surface Efficiency>
21.8

>  <Assay Index>
985527

>  <Assay Category>


>  <Assay Organism>
Homo sapiens

>  <Target ID>
65

>  <Target Name>
Cytochrome P450 19A1

>  <Target Organism>
Homo sapiens

>  <Target Description>
Target is a single protein chain

>  <Sequence Accession>
P11511

>  <Reference>


>  <Pubmed ID>
26469743

>  <DOI>
10.1016/j.ejmech.2015.09.038

$$$$
2057823
Actelion Java MolfileCreator 1.0

 25 28  0  0  0  0  0  0  0  0999 V2000
    0.0000   -0.0000   -0.0000 S   0  0  0  0  0  0  0  0  0  0  0  0
   -0.0204    1.5722   -0.0000 C   0  0  0  0  0  0  0  0  0  0  0  0
   -1.3680   -0.7555   -0.0000 C   0  0  0  0  0  0  0  0  0  0  0  0
   -1.3272    2.3481   -0.0000 C   0  0  0  0  0  0  0  0  0  0  0  0
    1.2455    2.3685   -0.0000 C   0  0  0  0  0  0  0  0  0  0  0  0
   -1.3885   -2.2869   -0.0000 C   0  0  0  0  0  0  0  0  0  0  0  0
   -2.4298    1.7560   -0.0000 O   0  0  0  0  0  0  0  0  0  0  0  0
   -1.3476    3.8591   -0.0000 C   0  0  0  0  0  0  0  0  0  0  0  0
    1.2251    3.8795   -0.0000 C   0  0  0  0  0  0  0  0  0  0  0  0
    2.5319    1.6335   -0.0000 C   0  0  0  0  0  0  0  0  0  0  0  0
   -2.4911   -2.8790   -0.0000 C   0  0  0  0  0  0  0  0  0  0  0  0
   -0.1021    4.6146   -0.0000 C   0  0  0  0  0  0  0  0  0  0  0  0
    2.4911    4.6350   -0.0000 C   0  0  0  0  0  0  0  0  0  0  0  0
    1.1843    5.1454   -0.0000 C   0  0  0  0  0  0  0  0  0  0  0  0
    3.7978    2.4298   -0.0000 C   0  0  0  0  0  0  0  0  0  0  0  0
    3.7570    3.9408   -0.0000 C   0  0  0  0  0  0  0  0  0  0  0  0
    2.4502    6.1664   -0.0000 C   0  0  0  0  0  0  0  0  0  0  0  0
    5.0229    4.6962   -0.0000 C   0  0  0  0  0  0  0  0  0  0  0  0
    3.7162    6.9423   -0.0000 C   0  0  0  0  0  0  0  0  0  0  0  0
    5.0025    6.2072   -0.0000 C   0  0  0  0  0  0  0  0  0  0  0  0
    7.5957    4.6962   -0.0000 C   0  0  0  0  0  0  0  0  0  0  0  0
    6.2685    7.0035   -0.0000 C   0  0  0  0  0  0  0  0  0  0  0  0
    4.9821    7.4732   -0.0000 C   0  0  0  0  0  0  0  0  0  0  0  0
    7.5752    6.2480   -0.0000 C   0  0  0  0  0  0  0  0  0  0  0  0
    6.2480    8.2695   -0.0000 O   0  0  0  0  0  0  0  0  0  0  0  0
  1  2  1  0  0  0  0
  1  3  1  0  0  0  0
  2  4  1  0  0  0  0
  2  5  2  0  0  0  0
  3  6  1  0  0  0  0
  4  7  2  0  0  0  0
  4  8  1  0  0  0  0
  5  9  1  0  0  0  0
  5 10  1  0  0  0  0
  6 11  1  0  0  0  0
  8 12  1  0  0  0  0
  9 13  1  0  0  0  0
  9 14  1  6  0  0  0
 10 15  1  0  0  0  0
 13 16  1  0  0  0  0
 13 17  1  6  0  0  0
 16 18  1  0  0  0  0
 17 19  1  0  0  0  0
 18 20  1  0  0  0  0
 18 21  1  6  0  0  0
 20 22  1  0  0  0  0
 20 23  1  6  0  0  0
 21 24  1  0  0  0  0
 22 25  2  0  0  0  0
  9 12  1  0  0  0  0
 16 15  1  1  0  0  0
 19 20  1  0  0  0  0
 22 24  1  0  0  0  0
M  END
>  <MolRegNo>
2057823

>  <m>
=

>  <Value>
36

>  <Unit>
nM

>  <Type>
Ki

>  <pValue>
7.44

>  <Ligand Efficiency>
0.41

>  <Binding Efficiency>
20.64

>  <Surface Efficiency>
21.8

>  <Assay Index>
985527

>  <Assay Category>


>  <Assay Organism>
Homo sapiens

>  <Target ID>
65

>  <Target Name>
Cytochrome P450 19A1

>  <Target Organism>
Homo sapiens

>  <Target Description>
Target is a single protein chain

>  <Sequence Accession>
P11511

>  <Reference>


>  <Pubmed ID>
26469743

>  <DOI>
10.1016/j.ejmech.2015.09.038

$$$$
2057828
Actelion Java MolfileCreator 1.0

 29 33  0  0  0  0  0  0  0  0999 V2000
    0.0000   -0.0000   -0.0000 O   0  0  0  0  0  0  0  0  0  0  0  0
    1.0556    0.6293   -0.0000 C   0  0  0  0  0  0  0  0  0  0  0  0
    2.3142   -0.1015   -0.0000 C   0  0  0  0  0  0  0  0  0  0  0  0
    1.0353    2.1315   -0.0000 C   0  0  0  0  0  0  0  0  0  0  0  0
    2.2939   -1.6240   -0.0000 O   0  0  0  0  0  0  0  0  0  0  0  0
    3.5728    0.6902   -0.0000 C   0  0  0  0  0  0  0  0  0  0  0  0
    2.2736    2.8826   -0.0000 C   0  0  0  0  0  0  0  0  0  0  0  0
    0.9338   -2.3751   -0.0000 C   0  0  0  0  0  0  0  0  0  0  0  0
    3.5525    2.1924   -0.0000 C   0  0  0  0  0  0  0  0  0  0  0  0
    4.8517   -0.0406   -0.0000 C   0  0  0  0  0  0  0  0  0  0  0  0
    0.9135   -3.8976   -0.0000 C   0  0  0  0  0  0  0  0  0  0  0  0
    4.8111    2.9435   -0.0000 C   0  0  0  0  0  0  0  0  0  0  0  0
    3.5119    3.4510   -0.0000 C   0  0  0  0  0  0  0  0  0  0  0  0
    6.1104    0.7511   -0.0000 C   0  0  0  0  0  0  0  0  0  0  0  0
    2.2127   -4.6487   -0.0000 C   0  0  0  0  0  0  0  0  0  0  0  0
   -0.4466   -4.6487   -0.0000 C   0  0  0  0  0  0  0  0  0  0  0  0
    6.0698    2.2533   -0.0000 C   0  0  0  0  0  0  0  0  0  0  0  0
    4.7705    4.4660   -0.0000 C   0  0  0  0  0  0  0  0  0  0  0  0
    2.1924   -6.1713   -0.0000 C   0  0  0  0  0  0  0  0  0  0  0  0
   -0.4669   -6.1713   -0.0000 C   0  0  0  0  0  0  0  0  0  0  0  0
    7.3284    3.0044   -0.0000 C   0  0  0  0  0  0  0  0  0  0  0  0
    6.0292    5.2374   -0.0000 C   0  0  0  0  0  0  0  0  0  0  0  0
    0.8323   -6.9224   -0.0000 C   0  0  0  0  0  0  0  0  0  0  0  0
    7.3081    4.5066   -0.0000 C   0  0  0  0  0  0  0  0  0  0  0  0
    9.8862    3.0044   -0.0000 C   0  0  0  0  0  0  0  0  0  0  0  0
    8.5667    5.2983   -0.0000 C   0  0  0  0  0  0  0  0  0  0  0  0
    7.2878    5.7653   -0.0000 C   0  0  0  0  0  0  0  0  0  0  0  0
    9.8659    4.5472   -0.0000 C   0  0  0  0  0  0  0  0  0  0  0  0
    8.5464    6.5570   -0.0000 O   0  0  0  0  0  0  0  0  0  0  0  0
  1  2  2  0  0  0  0
  2  3  1  0  0  0  0
  2  4  1  0  0  0  0
  3  5  1  0  0  0  0
  3  6  2  0  0  0  0
  4  7  1  0  0  0  0
  5  8  1  0  0  0  0
  6  9  1  0  0  0  0
  6 10  1  0  0  0  0
  8 11  1  0  0  0  0
  9 12  1  0  0  0  0
  9 13  1  6  0  0  0
 10 14  1  0  0  0  0
 11 15  2  0  0  0  0
 11 16  1  0  0  0  0
 12 17  1  0  0  0  0
 12 18  1  6  0  0  0
 15 19  1  0  0  0  0
 16 20  2  0  0  0  0
 17 21  1  0  0  0  0
 18 22  1  0  0  0  0
 19 23  2  0  0  0  0
 21 24  1  0  0  0  0
 21 25  1  6  0  0  0
 24 26  1  0  0  0  0
 24 27  1  6  0  0  0
 25 28  1  0  0  0  0
 26 29  2  0  0  0  0
  7  9  1  0  0  0  0
 17 14  1  1  0  0  0
 20 23  1  0  0  0  0
 22 24  1  0  0  0  0
 26 28  1  0  0  0  0
M  END
>  <MolRegNo>
2057828

>  <m>
=

>  <Value>
38

>  <Unit>
nM

>  <Type>
Ki

>  <pValue>
7.42

>  <Ligand Efficiency>
0.35

>  <Binding Efficiency>
18.9

>  <Surface Efficiency>
17.11

>  <Assay Index>
985527

>  <Assay Category>


>  <Assay Organism>
Homo sapiens

>  <Target ID>
65

>  <Target Name>
Cytochrome P450 19A1

>  <Target Organism>
Homo sapiens

>  <Target Description>
Target is a single protein chain

>  <Sequence Accession>
P11511

>  <Reference>


>  <Pubmed ID>
26469743

>  <DOI>
10.1016/j.ejmech.2015.09.038

$$$$
2057975
Actelion Java MolfileCreator 1.0

 28 32  0  0  0  0  0  0  0  0999 V2000
    0.0000   -0.0000   -0.0000 O   0  0  0  0  0  0  0  0  0  0  0  0
    1.0571    0.6302   -0.0000 C   0  0  0  0  0  0  0  0  0  0  0  0
    2.3175   -0.1016   -0.0000 C   0  0  0  0  0  0  0  0  0  0  0  0
    1.0368    2.1346   -0.0000 C   0  0  0  0  0  0  0  0  0  0  0  0
    3.5779    0.6912   -0.0000 C   0  0  0  0  0  0  0  0  0  0  0  0
    2.2769    2.8867   -0.0000 C   0  0  0  0  0  0  0  0  0  0  0  0
    4.8587   -0.0407   -0.0000 C   0  0  0  0  0  0  0  0  0  0  0  0
    3.5576    2.1956   -0.0000 C   0  0  0  0  0  0  0  0  0  0  0  0
    6.1191    0.7522   -0.0000 C   0  0  0  0  0  0  0  0  0  0  0  0
    4.8180    2.9477   -0.0000 C   0  0  0  0  0  0  0  0  0  0  0  0
    3.5169    3.4560   -0.0000 C   0  0  0  0  0  0  0  0  0  0  0  0
    6.0784    2.2565   -0.0000 C   0  0  0  0  0  0  0  0  0  0  0  0
    7.4405    0.0203   -0.0000 C   0  0  0  0  0  0  0  0  0  0  0  0
    4.7774    4.4724   -0.0000 C   0  0  0  0  0  0  0  0  0  0  0  0
    7.3388    3.0087   -0.0000 C   0  0  0  0  0  0  0  0  0  0  0  0
    7.4405   -1.5044   -0.0000 C   0  0  0  0  0  0  0  0  0  0  0  0
    6.0378    5.2449   -0.0000 C   0  0  0  0  0  0  0  0  0  0  0  0
    7.3185    4.5131   -0.0000 C   0  0  0  0  0  0  0  0  0  0  0  0
    9.9003    3.0087   -0.0000 C   0  0  0  0  0  0  0  0  0  0  0  0
    6.0988   -2.2769   -0.0000 C   0  0  0  0  0  0  0  0  0  0  0  0
    8.7619   -2.2362   -0.0000 C   0  0  0  0  0  0  0  0  0  0  0  0
    8.5789    5.3059   -0.0000 C   0  0  0  0  0  0  0  0  0  0  0  0
    7.2982    5.7735   -0.0000 C   0  0  0  0  0  0  0  0  0  0  0  0
    9.8800    4.5537   -0.0000 C   0  0  0  0  0  0  0  0  0  0  0  0
    6.0988   -3.8016   -0.0000 C   0  0  0  0  0  0  0  0  0  0  0  0
    8.7619   -3.7609   -0.0000 C   0  0  0  0  0  0  0  0  0  0  0  0
    8.5586    6.5663   -0.0000 O   0  0  0  0  0  0  0  0  0  0  0  0
    7.4202   -4.5334   -0.0000 C   0  0  0  0  0  0  0  0  0  0  0  0
  1  2  2  0  0  0  0
  2  3  1  0  0  0  0
  2  4  1  0  0  0  0
  3  5  2  0  0  0  0
  4  6  1  0  0  0  0
  5  7  1  0  0  0  0
  5  8  1  0  0  0  0
  7  9  2  0  0  0  0
  8 10  1  0  0  0  0
  8 11  1  6  0  0  0
 12  9  1  1  0  0  0
  9 13  1  0  0  0  0
 10 14  1  6  0  0  0
 12 15  1  0  0  0  0
 13 16  1  0  0  0  0
 14 17  1  0  0  0  0
 15 18  1  0  0  0  0
 15 19  1  6  0  0  0
 16 20  2  0  0  0  0
 16 21  1  0  0  0  0
 18 22  1  0  0  0  0
 18 23  1  6  0  0  0
 19 24  1  0  0  0  0
 20 25  1  0  0  0  0
 21 26  2  0  0  0  0
 22 27  2  0  0  0  0
 25 28  2  0  0  0  0
  6  8  1  0  0  0  0
 10 12  1  0  0  0  0
 17 18  1  0  0  0  0
 22 24  1  0  0  0  0
 26 28  1  0  0  0  0
M  END
>  <MolRegNo>
2057975

>  <m>
=

>  <Value>
60.9

>  <Unit>
nM

>  <Type>
Ki

>  <pValue>
7.21

>  <Ligand Efficiency>
0.35

>  <Binding Efficiency>
19.27

>  <Surface Efficiency>
21.13

>  <Assay Index>
985527

>  <Assay Category>


>  <Assay Organism>
Homo sapiens

>  <Target ID>
65

>  <Target Name>
Cytochrome P450 19A1

>  <Target Organism>
Homo sapiens

>  <Target Description>
Target is a single protein chain

>  <Sequence Accession>
P11511

>  <Reference>


>  <Pubmed ID>
26469743

>  <DOI>
10.1016/j.ejmech.2015.09.038

$$$$
2057976
Actelion Java MolfileCreator 1.0

 29 33  0  0  0  0  0  0  0  0999 V2000
    0.0000   -0.0000   -0.0000 O   0  0  0  0  0  0  0  0  0  0  0  0
    1.0575    0.6304   -0.0000 C   0  0  0  0  0  0  0  0  0  0  0  0
    2.3183   -0.1017   -0.0000 C   0  0  0  0  0  0  0  0  0  0  0  0
    1.0372    2.1353   -0.0000 C   0  0  0  0  0  0  0  0  0  0  0  0
    3.5792    0.6914   -0.0000 C   0  0  0  0  0  0  0  0  0  0  0  0
    2.2777    2.8878   -0.0000 C   0  0  0  0  0  0  0  0  0  0  0  0
    4.8604   -0.0407   -0.0000 C   0  0  0  0  0  0  0  0  0  0  0  0
    3.5589    2.1963   -0.0000 C   0  0  0  0  0  0  0  0  0  0  0  0
    6.1212    0.7524   -0.0000 C   0  0  0  0  0  0  0  0  0  0  0  0
    4.8197    2.9488   -0.0000 C   0  0  0  0  0  0  0  0  0  0  0  0
    3.5182    3.4572   -0.0000 C   0  0  0  0  0  0  0  0  0  0  0  0
    6.0806    2.2573   -0.0000 C   0  0  0  0  0  0  0  0  0  0  0  0
    7.4431    0.0203   -0.0000 C   0  0  0  0  0  0  0  0  0  0  0  0
    4.7790    4.4740   -0.0000 C   0  0  0  0  0  0  0  0  0  0  0  0
    7.3414    3.0098   -0.0000 C   0  0  0  0  0  0  0  0  0  0  0  0
    7.4431   -1.5049   -0.0000 C   0  0  0  0  0  0  0  0  0  0  0  0
    6.0399    5.2468   -0.0000 C   0  0  0  0  0  0  0  0  0  0  0  0
    7.3211    4.5147   -0.0000 C   0  0  0  0  0  0  0  0  0  0  0  0
    9.9038    3.0098   -0.0000 C   0  0  0  0  0  0  0  0  0  0  0  0
    8.7650   -2.2370   -0.0000 C   0  0  0  0  0  0  0  0  0  0  0  0
    8.5819    5.3078   -0.0000 C   0  0  0  0  0  0  0  0  0  0  0  0
    7.3007    5.7755   -0.0000 C   0  0  0  0  0  0  0  0  0  0  0  0
    9.8835    4.5553   -0.0000 C   0  0  0  0  0  0  0  0  0  0  0  0
   10.0665   -1.4235   -0.0000 C   0  0  0  0  0  0  0  0  0  0  0  0
    8.7650   -3.7622   -0.0000 C   0  0  0  0  0  0  0  0  0  0  0  0
    8.5616    6.5686   -0.0000 O   0  0  0  0  0  0  0  0  0  0  0  0
   11.3883   -2.1556   -0.0000 C   0  0  0  0  0  0  0  0  0  0  0  0
   10.0868   -4.4943   -0.0000 C   0  0  0  0  0  0  0  0  0  0  0  0
   11.3883   -3.6809   -0.0000 C   0  0  0  0  0  0  0  0  0  0  0  0
  1  2  2  0  0  0  0
  2  3  1  0  0  0  0
  2  4  1  0  0  0  0
  3  5  2  0  0  0  0
  4  6  1  0  0  0  0
  5  7  1  0  0  0  0
  5  8  1  0  0  0  0
  7  9  2  0  0  0  0
  8 10  1  0  0  0  0
  8 11  1  6  0  0  0
 12  9  1  1  0  0  0
  9 13  1  0  0  0  0
 10 14  1  6  0  0  0
 12 15  1  0  0  0  0
 13 16  1  0  0  0  0
 14 17  1  0  0  0  0
 15 18  1  0  0  0  0
 15 19  1  6  0  0  0
 16 20  1  0  0  0  0
 18 21  1  0  0  0  0
 18 22  1  6  0  0  0
 19 23  1  0  0  0  0
 20 24  2  0  0  0  0
 20 25  1  0  0  0  0
 21 26  2  0  0  0  0
 24 27  1  0  0  0  0
 25 28  2  0  0  0  0
 27 29  2  0  0  0  0
  6  8  1  0  0  0  0
 10 12  1  0  0  0  0
 17 18  1  0  0  0  0
 21 23  1  0  0  0  0
 28 29  1  0  0  0  0
M  END
>  <MolRegNo>
2057976

>  <m>
=

>  <Value>
60.9

>  <Unit>
nM

>  <Type>
Ki

>  <pValue>
7.21

>  <Ligand Efficiency>
0.34

>  <Binding Efficiency>
18.57

>  <Surface Efficiency>
21.13

>  <Assay Index>
985527

>  <Assay Category>


>  <Assay Organism>
Homo sapiens

>  <Target ID>
65

>  <Target Name>
Cytochrome P450 19A1

>  <Target Organism>
Homo sapiens

>  <Target Description>
Target is a single protein chain

>  <Sequence Accession>
P11511

>  <Reference>


>  <Pubmed ID>
26469743

>  <DOI>
10.1016/j.ejmech.2015.09.038

$$$$
2057977
Actelion Java MolfileCreator 1.0

 27 31  0  0  0  0  0  0  0  0999 V2000
    0.0000   -0.0000   -0.0000 O   0  0  0  0  0  0  0  0  0  0  0  0
    1.0583    0.6309   -0.0000 C   0  0  0  0  0  0  0  0  0  0  0  0
    2.3202   -0.1018   -0.0000 C   0  0  0  0  0  0  0  0  0  0  0  0
    1.0380    2.1370   -0.0000 C   0  0  0  0  0  0  0  0  0  0  0  0
    3.5820    0.6920   -0.0000 C   0  0  0  0  0  0  0  0  0  0  0  0
    2.2794    2.8900   -0.0000 C   0  0  0  0  0  0  0  0  0  0  0  0
    4.8642   -0.0407   -0.0000 C   0  0  0  0  0  0  0  0  0  0  0  0
    3.5616    2.1980   -0.0000 C   0  0  0  0  0  0  0  0  0  0  0  0
    6.1260    0.7530   -0.0000 C   0  0  0  0  0  0  0  0  0  0  0  0
    4.8235    2.9511   -0.0000 C   0  0  0  0  0  0  0  0  0  0  0  0
    3.5209    3.4599   -0.0000 C   0  0  0  0  0  0  0  0  0  0  0  0
    7.4489    0.0204   -0.0000 C   0  0  0  0  0  0  0  0  0  0  0  0
    6.0853    2.2591   -0.0000 C   0  0  0  0  0  0  0  0  0  0  0  0
    4.7828    4.4775   -0.0000 C   0  0  0  0  0  0  0  0  0  0  0  0
    7.4489   -1.5061   -0.0000 C   0  0  0  0  0  0  0  0  0  0  0  0
    8.7514    0.8344   -0.0000 C   0  0  0  0  0  0  0  0  0  0  0  0
    7.3471    3.0121   -0.0000 C   0  0  0  0  0  0  0  0  0  0  0  0
    6.0446    5.2509   -0.0000 C   0  0  0  0  0  0  0  0  0  0  0  0
    8.7718   -2.2387   -0.0000 C   0  0  0  0  0  0  0  0  0  0  0  0
   10.0743    0.1018   -0.0000 C   0  0  0  0  0  0  0  0  0  0  0  0
    7.3268    4.5182   -0.0000 C   0  0  0  0  0  0  0  0  0  0  0  0
    9.9115    3.0121   -0.0000 C   0  0  0  0  0  0  0  0  0  0  0  0
   10.0743   -1.4247   -0.0000 C   0  0  0  0  0  0  0  0  0  0  0  0
    8.5886    5.3119   -0.0000 C   0  0  0  0  0  0  0  0  0  0  0  0
    7.3064    5.7800   -0.0000 C   0  0  0  0  0  0  0  0  0  0  0  0
    9.8912    4.5589   -0.0000 C   0  0  0  0  0  0  0  0  0  0  0  0
    8.5683    6.5738   -0.0000 O   0  0  0  0  0  0  0  0  0  0  0  0
  1  2  2  0  0  0  0
  2  3  1  0  0  0  0
  2  4  1  0  0  0  0
  3  5  2  0  0  0  0
  4  6  1  0  0  0  0
  5  7  1  0  0  0  0
  5  8  1  0  0  0  0
  7  9  2  0  0  0  0
  8 10  1  0  0  0  0
  8 11  1  6  0  0  0
  9 12  1  0  0  0  0
 13  9  1  1  0  0  0
 10 14  1  6  0  0  0
 12 15  2  0  0  0  0
 12 16  1  0  0  0  0
 13 17  1  0  0  0  0
 14 18  1  0  0  0  0
 15 19  1  0  0  0  0
 16 20  2  0  0  0  0
 17 21  1  0  0  0  0
 17 22  1  6  0  0  0
 19 23  2  0  0  0  0
 21 24  1  0  0  0  0
 21 25  1  6  0  0  0
 22 26  1  0  0  0  0
 24 27  2  0  0  0  0
  6  8  1  0  0  0  0
 10 13  1  0  0  0  0
 18 21  1  0  0  0  0
 20 23  1  0  0  0  0
 24 26  1  0  0  0  0
M  END
>  <MolRegNo>
2057977

>  <m>
=

>  <Value>
1424

>  <Unit>
nM

>  <Type>
Ki

>  <pValue>
5.85

>  <Ligand Efficiency>
0.3

>  <Binding Efficiency>
16.22

>  <Surface Efficiency>
17.13

>  <Assay Index>
985527

>  <Assay Category>


>  <Assay Organism>
Homo sapiens

>  <Target ID>
65

>  <Target Name>
Cytochrome P450 19A1

>  <Target Organism>
Homo sapiens

>  <Target Description>
Target is a single protein chain

>  <Sequence Accession>
P11511

>  <Reference>


>  <Pubmed ID>
26469743

>  <DOI>
10.1016/j.ejmech.2015.09.038

$$$$
2057978
Actelion Java MolfileCreator 1.0

 28 32  0  0  0  0  0  0  0  0999 V2000
    0.0000   -0.0000   -0.0000 O   0  0  0  0  0  0  0  0  0  0  0  0
    1.0571    0.6302   -0.0000 C   0  0  0  0  0  0  0  0  0  0  0  0
    2.3175   -0.1016   -0.0000 C   0  0  0  0  0  0  0  0  0  0  0  0
    1.0368    2.1346   -0.0000 C   0  0  0  0  0  0  0  0  0  0  0  0
    3.5779    0.6912   -0.0000 C   0  0  0  0  0  0  0  0  0  0  0  0
    2.2769    2.8867   -0.0000 C   0  0  0  0  0  0  0  0  0  0  0  0
    3.5576    2.1956   -0.0000 C   0  0  0  0  0  0  0  0  0  0  0  0
    4.8587   -0.0407   -0.0000 C   0  0  0  0  0  0  0  0  0  0  0  0
    4.8180    2.9477   -0.0000 C   0  0  0  0  0  0  0  0  0  0  0  0
    3.5169    3.4560   -0.0000 C   0  0  0  0  0  0  0  0  0  0  0  0
    6.1191    0.7522   -0.0000 C   0  0  0  0  0  0  0  0  0  0  0  0
    6.0784    2.2565   -0.0000 C   0  0  0  0  0  0  0  0  0  0  0  0
    4.7774    4.4724   -0.0000 C   0  0  0  0  0  0  0  0  0  0  0  0
    7.4405    0.0203   -0.0000 C   0  0  0  0  0  0  0  0  0  0  0  0
    7.3388    3.0087   -0.0000 C   0  0  0  0  0  0  0  0  0  0  0  0
    6.0378    5.2449   -0.0000 C   0  0  0  0  0  0  0  0  0  0  0  0
    7.4405   -1.5044   -0.0000 C   0  0  0  0  0  0  0  0  0  0  0  0
    7.3185    4.5131   -0.0000 C   0  0  0  0  0  0  0  0  0  0  0  0
    9.9003    3.0087   -0.0000 C   0  0  0  0  0  0  0  0  0  0  0  0
    6.0988   -2.2769   -0.0000 C   0  0  0  0  0  0  0  0  0  0  0  0
    8.7619   -2.2362   -0.0000 C   0  0  0  0  0  0  0  0  0  0  0  0
    8.5789    5.3059   -0.0000 C   0  0  0  0  0  0  0  0  0  0  0  0
    7.2982    5.7735   -0.0000 C   0  0  0  0  0  0  0  0  0  0  0  0
    9.8800    4.5537   -0.0000 C   0  0  0  0  0  0  0  0  0  0  0  0
    6.0988   -3.8016   -0.0000 C   0  0  0  0  0  0  0  0  0  0  0  0
    8.7619   -3.7609   -0.0000 C   0  0  0  0  0  0  0  0  0  0  0  0
    8.5586    6.5663   -0.0000 O   0  0  0  0  0  0  0  0  0  0  0  0
    7.4202   -4.5334   -0.0000 C   0  0  0  0  0  0  0  0  0  0  0  0
  1  2  2  0  0  0  0
  2  3  1  0  0  0  0
  2  4  1  0  0  0  0
  3  5  2  0  0  0  0
  4  6  2  0  0  0  0
  5  7  1  0  0  0  0
  5  8  1  0  0  0  0
  7  9  1  0  0  0  0
  7 10  1  1  0  0  0
  8 11  1  0  0  0  0
 12  9  1  6  0  0  0
  9 13  1  1  0  0  0
 11 14  1  6  0  0  0
 12 15  1  0  0  0  0
 13 16  1  0  0  0  0
 14 17  1  0  0  0  0
 15 18  1  0  0  0  0
 15 19  1  1  0  0  0
 17 20  2  0  0  0  0
 17 21  1  0  0  0  0
 18 22  1  0  0  0  0
 18 23  1  1  0  0  0
 19 24  1  0  0  0  0
 20 25  1  0  0  0  0
 21 26  2  0  0  0  0
 22 27  2  0  0  0  0
 25 28  2  0  0  0  0
  6  7  1  0  0  0  0
 11 12  1  0  0  0  0
 16 18  1  0  0  0  0
 22 24  1  0  0  0  0
 26 28  1  0  0  0  0
M  END
>  <MolRegNo>
2057978

>  <m>
=

>  <Value>
7

>  <Unit>
nM

>  <Type>
Ki

>  <pValue>
8.15

>  <Ligand Efficiency>
0.4

>  <Binding Efficiency>
21.77

>  <Surface Efficiency>
23.89

>  <Assay Index>
985527

>  <Assay Category>


>  <Assay Organism>
Homo sapiens

>  <Target ID>
65

>  <Target Name>
Cytochrome P450 19A1

>  <Target Organism>
Homo sapiens

>  <Target Description>
Target is a single protein chain

>  <Sequence Accession>
P11511

>  <Reference>


>  <Pubmed ID>
26469743

>  <DOI>
10.1016/j.ejmech.2015.09.038

$$$$
2057979
Actelion Java MolfileCreator 1.0

 29 33  0  0  0  0  0  0  0  0999 V2000
    0.0000   -0.0000   -0.0000 O   0  0  0  0  0  0  0  0  0  0  0  0
    1.0575    0.6304   -0.0000 C   0  0  0  0  0  0  0  0  0  0  0  0
    2.3183   -0.1017   -0.0000 C   0  0  0  0  0  0  0  0  0  0  0  0
    1.0372    2.1353   -0.0000 C   0  0  0  0  0  0  0  0  0  0  0  0
    3.5792    0.6914   -0.0000 C   0  0  0  0  0  0  0  0  0  0  0  0
    2.2777    2.8878   -0.0000 C   0  0  0  0  0  0  0  0  0  0  0  0
    3.5589    2.1963   -0.0000 C   0  0  0  0  0  0  0  0  0  0  0  0
    4.8604   -0.0407   -0.0000 C   0  0  0  0  0  0  0  0  0  0  0  0
    4.8197    2.9488   -0.0000 C   0  0  0  0  0  0  0  0  0  0  0  0
    3.5182    3.4572   -0.0000 C   0  0  0  0  0  0  0  0  0  0  0  0
    6.1212    0.7524   -0.0000 C   0  0  0  0  0  0  0  0  0  0  0  0
    6.0806    2.2573   -0.0000 C   0  0  0  0  0  0  0  0  0  0  0  0
    4.7790    4.4740   -0.0000 C   0  0  0  0  0  0  0  0  0  0  0  0
    7.4431    0.0203   -0.0000 C   0  0  0  0  0  0  0  0  0  0  0  0
    7.3414    3.0098   -0.0000 C   0  0  0  0  0  0  0  0  0  0  0  0
    6.0399    5.2468   -0.0000 C   0  0  0  0  0  0  0  0  0  0  0  0
    7.4431   -1.5049   -0.0000 C   0  0  0  0  0  0  0  0  0  0  0  0
    7.3211    4.5147   -0.0000 C   0  0  0  0  0  0  0  0  0  0  0  0
    9.9038    3.0098   -0.0000 C   0  0  0  0  0  0  0  0  0  0  0  0
    8.7650   -2.2370   -0.0000 C   0  0  0  0  0  0  0  0  0  0  0  0
    8.5819    5.3078   -0.0000 C   0  0  0  0  0  0  0  0  0  0  0  0
    7.3007    5.7755   -0.0000 C   0  0  0  0  0  0  0  0  0  0  0  0
    9.8835    4.5553   -0.0000 C   0  0  0  0  0  0  0  0  0  0  0  0
   10.0665   -1.4235   -0.0000 C   0  0  0  0  0  0  0  0  0  0  0  0
    8.7650   -3.7622   -0.0000 C   0  0  0  0  0  0  0  0  0  0  0  0
    8.5616    6.5686   -0.0000 O   0  0  0  0  0  0  0  0  0  0  0  0
   11.3883   -2.1556   -0.0000 C   0  0  0  0  0  0  0  0  0  0  0  0
   10.0868   -4.4943   -0.0000 C   0  0  0  0  0  0  0  0  0  0  0  0
   11.3883   -3.6809   -0.0000 C   0  0  0  0  0  0  0  0  0  0  0  0
  1  2  2  0  0  0  0
  2  3  1  0  0  0  0
  2  4  1  0  0  0  0
  3  5  2  0  0  0  0
  4  6  2  0  0  0  0
  5  7  1  0  0  0  0
  5  8  1  0  0  0  0
  7  9  1  0  0  0  0
  7 10  1  1  0  0  0
  8 11  1  0  0  0  0
 12  9  1  6  0  0  0
  9 13  1  1  0  0  0
 11 14  1  6  0  0  0
 12 15  1  0  0  0  0
 13 16  1  0  0  0  0
 14 17  1  0  0  0  0
 15 18  1  0  0  0  0
 15 19  1  1  0  0  0
 17 20  1  0  0  0  0
 18 21  1  0  0  0  0
 18 22  1  1  0  0  0
 19 23  1  0  0  0  0
 20 24  2  0  0  0  0
 20 25  1  0  0  0  0
 21 26  2  0  0  0  0
 24 27  1  0  0  0  0
 25 28  2  0  0  0  0
 27 29  2  0  0  0  0
  6  7  1  0  0  0  0
 11 12  1  0  0  0  0
 16 18  1  0  0  0  0
 21 23  1  0  0  0  0
 28 29  1  0  0  0  0
M  END
>  <MolRegNo>
2057979

>  <m>
=

>  <Value>
7

>  <Unit>
nM

>  <Type>
Ki

>  <pValue>
8.15

>  <Ligand Efficiency>
0.38

>  <Binding Efficiency>
20.99

>  <Surface Efficiency>
23.89

>  <Assay Index>
985527

>  <Assay Category>


>  <Assay Organism>
Homo sapiens

>  <Target ID>
65

>  <Target Name>
Cytochrome P450 19A1

>  <Target Organism>
Homo sapiens

>  <Target Description>
Target is a single protein chain

>  <Sequence Accession>
P11511

>  <Reference>


>  <Pubmed ID>
26469743

>  <DOI>
10.1016/j.ejmech.2015.09.038

$$$$
2057980
Actelion Java MolfileCreator 1.0

 30 34  0  0  0  0  0  0  0  0999 V2000
    0.0000   -0.0000   -0.0000 O   0  0  0  0  0  0  0  0  0  0  0  0
    1.0564    0.6298   -0.0000 C   0  0  0  0  0  0  0  0  0  0  0  0
    2.3159   -0.1016   -0.0000 C   0  0  0  0  0  0  0  0  0  0  0  0
    1.0361    2.1331   -0.0000 C   0  0  0  0  0  0  0  0  0  0  0  0
    3.5755    0.6907   -0.0000 C   0  0  0  0  0  0  0  0  0  0  0  0
    2.2753    2.8848   -0.0000 C   0  0  0  0  0  0  0  0  0  0  0  0
    3.5552    2.1940   -0.0000 C   0  0  0  0  0  0  0  0  0  0  0  0
    4.8553   -0.0406   -0.0000 C   0  0  0  0  0  0  0  0  0  0  0  0
    4.8147    2.9457   -0.0000 C   0  0  0  0  0  0  0  0  0  0  0  0
    3.5145    3.4536   -0.0000 C   0  0  0  0  0  0  0  0  0  0  0  0
    6.1149    0.7517   -0.0000 C   0  0  0  0  0  0  0  0  0  0  0  0
    6.0742    2.2550   -0.0000 C   0  0  0  0  0  0  0  0  0  0  0  0
    4.7741    4.4693   -0.0000 C   0  0  0  0  0  0  0  0  0  0  0  0
    7.4353    0.0203   -0.0000 C   0  0  0  0  0  0  0  0  0  0  0  0
    7.3338    3.0066   -0.0000 C   0  0  0  0  0  0  0  0  0  0  0  0
    6.0336    5.2413   -0.0000 C   0  0  0  0  0  0  0  0  0  0  0  0
    7.4353   -1.5033   -0.0000 C   0  0  0  0  0  0  0  0  0  0  0  0
    7.3135    4.5100   -0.0000 C   0  0  0  0  0  0  0  0  0  0  0  0
    9.8935    3.0066   -0.0000 C   0  0  0  0  0  0  0  0  0  0  0  0
    8.7558   -2.2347   -0.0000 C   0  0  0  0  0  0  0  0  0  0  0  0
    8.5730    5.3023   -0.0000 C   0  0  0  0  0  0  0  0  0  0  0  0
    7.2931    5.7695   -0.0000 C   0  0  0  0  0  0  0  0  0  0  0  0
    9.8732    4.5506   -0.0000 C   0  0  0  0  0  0  0  0  0  0  0  0
    8.7558   -3.7583   -0.0000 C   0  0  0  0  0  0  0  0  0  0  0  0
    8.5527    6.5618   -0.0000 O   0  0  0  0  0  0  0  0  0  0  0  0
    7.4150   -4.5303   -0.0000 C   0  0  0  0  0  0  0  0  0  0  0  0
   10.0763   -4.4896   -0.0000 C   0  0  0  0  0  0  0  0  0  0  0  0
    7.4150   -6.0539   -0.0000 C   0  0  0  0  0  0  0  0  0  0  0  0
   10.0763   -6.0133   -0.0000 C   0  0  0  0  0  0  0  0  0  0  0  0
    8.7355   -6.7853   -0.0000 C   0  0  0  0  0  0  0  0  0  0  0  0
  1  2  2  0  0  0  0
  2  3  1  0  0  0  0
  2  4  1  0  0  0  0
  3  5  2  0  0  0  0
  4  6  2  0  0  0  0
  5  7  1  0  0  0  0
  5  8  1  0  0  0  0
  7  9  1  0  0  0  0
  7 10  1  1  0  0  0
  8 11  1  0  0  0  0
 12  9  1  6  0  0  0
  9 13  1  1  0  0  0
 11 14  1  6  0  0  0
 12 15  1  0  0  0  0
 13 16  1  0  0  0  0
 14 17  1  0  0  0  0
 15 18  1  0  0  0  0
 15 19  1  1  0  0  0
 17 20  1  0  0  0  0
 18 21  1  0  0  0  0
 18 22  1  1  0  0  0
 19 23  1  0  0  0  0
 20 24  1  0  0  0  0
 21 25  2  0  0  0  0
 24 26  2  0  0  0  0
 24 27  1  0  0  0  0
 26 28  1  0  0  0  0
 27 29  2  0  0  0  0
 28 30  2  0  0  0  0
  6  7  1  0  0  0  0
 11 12  1  0  0  0  0
 16 18  1  0  0  0  0
 21 23  1  0  0  0  0
 29 30  1  0  0  0  0
M  END
>  <MolRegNo>
2057980

>  <m>
=

>  <Value>
7

>  <Unit>
nM

>  <Type>
Ki

>  <pValue>
8.15

>  <Ligand Efficiency>
0.37

>  <Binding Efficiency>
20.26

>  <Surface Efficiency>
23.89

>  <Assay Index>
985527

>  <Assay Category>


>  <Assay Organism>
Homo sapiens

>  <Target ID>
65

>  <Target Name>
Cytochrome P450 19A1

>  <Target Organism>
Homo sapiens

>  <Target Description>
Target is a single protein chain

>  <Sequence Accession>
P11511

>  <Reference>


>  <Pubmed ID>
26469743

>  <DOI>
10.1016/j.ejmech.2015.09.038

$$$$
2057981
Actelion Java MolfileCreator 1.0

 32 36  0  0  0  0  0  0  0  0999 V2000
    0.0000   -0.0000   -0.0000 O   0  0  0  0  0  0  0  0  0  0  0  0
   -1.0733   -0.6075   -0.0000 N   0  0  0  0  0  0  0  0  0  0  0  0
   -1.0733   -1.8023   -0.0000 O   0  0  0  0  0  0  0  0  0  0  0  0
   -2.4301    0.1620   -0.0000 C   0  0  0  0  0  0  0  0  0  0  0  0
   -3.7667   -0.6075   -0.0000 C   0  0  0  0  0  0  0  0  0  0  0  0
   -2.4706    1.7213   -0.0000 C   0  0  0  0  0  0  0  0  0  0  0  0
   -5.1235    0.1620   -0.0000 C   0  0  0  0  0  0  0  0  0  0  0  0
   -3.8274    2.4909   -0.0000 C   0  0  0  0  0  0  0  0  0  0  0  0
   -5.1640    1.7213   -0.0000 C   0  0  0  0  0  0  0  0  0  0  0  0
   -6.5208    2.4909   -0.0000 C   0  0  0  0  0  0  0  0  0  0  0  0
   -6.5613    4.0502   -0.0000 C   0  0  0  0  0  0  0  0  0  0  0  0
   -7.9181    4.8197   -0.0000 C   0  0  0  0  0  0  0  0  0  0  0  0
   -7.9586    6.3183   -0.0000 C   0  0  0  0  0  0  0  0  0  0  0  0
   -9.2141    4.0704   -0.0000 C   0  0  0  0  0  0  0  0  0  0  0  0
   -9.2546    7.0473   -0.0000 C   0  0  0  0  0  0  0  0  0  0  0  0
   -6.7030    7.0675   -0.0000 C   0  0  0  0  0  0  0  0  0  0  0  0
  -10.5304    4.8400   -0.0000 C   0  0  0  0  0  0  0  0  0  0  0  0
  -10.5507    6.3385   -0.0000 C   0  0  0  0  0  0  0  0  0  0  0  0
   -9.2951    8.5661   -0.0000 C   0  0  0  0  0  0  0  0  0  0  0  0
   -6.7233    8.5661   -0.0000 C   0  0  0  0  0  0  0  0  0  0  0  0
   -4.1514    7.0675   -0.0000 C   0  0  0  0  0  0  0  0  0  0  0  0
  -11.8265    4.0907   -0.0000 C   0  0  0  0  0  0  0  0  0  0  0  0
  -11.8670    7.0675   -0.0000 C   0  0  0  0  0  0  0  0  0  0  0  0
  -10.5912    7.5941   -0.0000 C   0  0  0  0  0  0  0  0  0  0  0  0
   -8.0396    9.3356   -0.0000 C   0  0  0  0  0  0  0  0  0  0  0  0
   -5.4677    9.3559   -0.0000 C   0  0  0  0  0  0  0  0  0  0  0  0
   -6.7435    9.8217   -0.0000 C   0  0  0  0  0  0  0  0  0  0  0  0
   -4.1717    8.6066   -0.0000 C   0  0  0  0  0  0  0  0  0  0  0  0
  -13.1225    4.8602   -0.0000 C   0  0  0  0  0  0  0  0  0  0  0  0
  -13.1428    6.3588   -0.0000 C   0  0  0  0  0  0  0  0  0  0  0  0
   -5.4880   10.6114   -0.0000 O   0  0  0  0  0  0  0  0  0  0  0  0
  -14.2161    4.2729   -0.0000 O   0  0  0  0  0  0  0  0  0  0  0  0
  1  2  2  0  0  0  0
  2  3  1  0  0  0  0
  2  4  1  0  0  0  0
  4  5  2  0  0  0  0
  4  6  1  0  0  0  0
  5  7  1  0  0  0  0
  6  8  2  0  0  0  0
  7  9  2  0  0  0  0
  9 10  1  0  0  0  0
 10 11  1  0  0  0  0
 12 11  1  6  0  0  0
 13 12  1  6  0  0  0
 12 14  1  0  0  0  0
 13 15  1  0  0  0  0
 13 16  1  0  0  0  0
 14 17  1  0  0  0  0
 15 18  1  0  0  0  0
 15 19  1  1  0  0  0
 16 20  1  0  0  0  0
 16 21  1  1  0  0  0
 17 22  2  0  0  0  0
 18 23  1  0  0  0  0
 18 24  1  1  0  0  0
 19 25  1  0  0  0  0
 20 26  1  0  0  0  0
 20 27  1  1  0  0  0
 21 28  1  0  0  0  0
 22 29  1  0  0  0  0
 23 30  2  0  0  0  0
 26 31  2  0  0  0  0
 29 32  2  0  0  0  0
  8  9  1  0  0  0  0
 17 18  1  0  0  0  0
 20 25  1  0  0  0  0
 26 28  1  0  0  0  0
 29 30  1  0  0  0  0
M  CHG  2   2   1   3  -1
M  END
>  <MolRegNo>
2057981

>  <m>
=

>  <Value>
7

>  <Unit>
nM

>  <Type>
Ki

>  <pValue>
8.15

>  <Ligand Efficiency>
0.35

>  <Binding Efficiency>
18.81

>  <Surface Efficiency>
10.55

>  <Assay Index>
985527

>  <Assay Category>


>  <Assay Organism>
Homo sapiens

>  <Target ID>
65

>  <Target Name>
Cytochrome P450 19A1

>  <Target Organism>
Homo sapiens

>  <Target Description>
Target is a single protein chain

>  <Sequence Accession>
P11511

>  <Reference>


>  <Pubmed ID>
26469743

>  <DOI>
10.1016/j.ejmech.2015.09.038

$$$$
2057982
Actelion Java MolfileCreator 1.0

 30 34  0  0  0  0  0  0  0  0999 V2000
    0.0000   -0.0000   -0.0000 O   0  0  0  0  0  0  0  0  0  0  0  0
    1.0637    0.6341   -0.0000 C   0  0  0  0  0  0  0  0  0  0  0  0
    2.3320   -0.1023   -0.0000 C   0  0  0  0  0  0  0  0  0  0  0  0
    1.0433    2.1479   -0.0000 C   0  0  0  0  0  0  0  0  0  0  0  0
    3.6003    0.6955   -0.0000 C   0  0  0  0  0  0  0  0  0  0  0  0
    2.2911    2.9048   -0.0000 C   0  0  0  0  0  0  0  0  0  0  0  0
    3.5798    2.2093   -0.0000 C   0  0  0  0  0  0  0  0  0  0  0  0
    4.8890   -0.0409   -0.0000 C   0  0  0  0  0  0  0  0  0  0  0  0
    4.8481    2.9662   -0.0000 C   0  0  0  0  0  0  0  0  0  0  0  0
    3.5389    3.4776   -0.0000 C   0  0  0  0  0  0  0  0  0  0  0  0
    6.1573    0.7569   -0.0000 C   0  0  0  0  0  0  0  0  0  0  0  0
    6.1164    2.2706   -0.0000 C   0  0  0  0  0  0  0  0  0  0  0  0
    4.8072    4.5004   -0.0000 C   0  0  0  0  0  0  0  0  0  0  0  0
    7.4870    0.0205   -0.0000 C   0  0  0  0  0  0  0  0  0  0  0  0
    7.3847    3.0275   -0.0000 C   0  0  0  0  0  0  0  0  0  0  0  0
    6.0755    5.2777   -0.0000 C   0  0  0  0  0  0  0  0  0  0  0  0
    7.4870   -1.5138   -0.0000 C   0  0  0  0  0  0  0  0  0  0  0  0
    7.3642    4.5413   -0.0000 C   0  0  0  0  0  0  0  0  0  0  0  0
    9.9622    3.0275   -0.0000 C   0  0  0  0  0  0  0  0  0  0  0  0
    8.8166   -2.2502   -0.0000 C   0  0  0  0  0  0  0  0  0  0  0  0
    8.6325    5.3391   -0.0000 C   0  0  0  0  0  0  0  0  0  0  0  0
    7.3438    5.8096   -0.0000 C   0  0  0  0  0  0  0  0  0  0  0  0
    9.9417    4.5822   -0.0000 C   0  0  0  0  0  0  0  0  0  0  0  0
   10.1258   -1.4319   -0.0000 C   0  0  0  0  0  0  0  0  0  0  0  0
    8.8166   -3.7844   -0.0000 C   0  0  0  0  0  0  0  0  0  0  0  0
    8.6121    6.6074   -0.0000 O   0  0  0  0  0  0  0  0  0  0  0  0
   11.4555   -2.1684   -0.0000 C   0  0  0  0  0  0  0  0  0  0  0  0
   10.1463   -4.5208   -0.0000 C   0  0  0  0  0  0  0  0  0  0  0  0
   11.4555   -3.7026   -0.0000 C   0  0  0  0  0  0  0  0  0  0  0  0
   12.5192   -4.2754   -0.0000 N   0  0  0  0  0  0  0  0  0  0  0  0
  1  2  2  0  0  0  0
  2  3  1  0  0  0  0
  2  4  1  0  0  0  0
  3  5  2  0  0  0  0
  4  6  2  0  0  0  0
  5  7  1  0  0  0  0
  5  8  1  0  0  0  0
  7  9  1  0  0  0  0
  7 10  1  1  0  0  0
  8 11  1  0  0  0  0
 12  9  1  6  0  0  0
  9 13  1  1  0  0  0
 11 14  1  6  0  0  0
 12 15  1  0  0  0  0
 13 16  1  0  0  0  0
 14 17  1  0  0  0  0
 15 18  1  0  0  0  0
 15 19  1  1  0  0  0
 17 20  1  0  0  0  0
 18 21  1  0  0  0  0
 18 22  1  1  0  0  0
 19 23  1  0  0  0  0
 20 24  2  0  0  0  0
 20 25  1  0  0  0  0
 21 26  2  0  0  0  0
 24 27  1  0  0  0  0
 25 28  2  0  0  0  0
 27 29  2  0  0  0  0
 29 30  1  0  0  0  0
  6  7  1  0  0  0  0
 11 12  1  0  0  0  0
 16 18  1  0  0  0  0
 21 23  1  0  0  0  0
 28 29  1  0  0  0  0
M  END
>  <MolRegNo>
2057982

>  <m>
=

>  <Value>
7

>  <Unit>
nM

>  <Type>
Ki

>  <pValue>
8.15

>  <Ligand Efficiency>
0.37

>  <Binding Efficiency>
20.21

>  <Surface Efficiency>
13.56

>  <Assay Index>
985527

>  <Assay Category>


>  <Assay Organism>
Homo sapiens

>  <Target ID>
65

>  <Target Name>
Cytochrome P450 19A1

>  <Target Organism>
Homo sapiens

>  <Target Description>
Target is a single protein chain

>  <Sequence Accession>
P11511

>  <Reference>


>  <Pubmed ID>
26469743

>  <DOI>
10.1016/j.ejmech.2015.09.038

$$$$
2057983
Actelion Java MolfileCreator 1.0

 33 37  0  0  0  0  0  0  0  0999 V2000
    0.0000   -0.0000   -0.0000 O   0  0  0  0  0  0  0  0  0  0  0  0
    1.0323    0.6477   -0.0000 N   0  0  0  0  0  0  0  0  0  0  0  0
    2.0847    0.0607   -0.0000 O   0  0  0  0  0  0  0  0  0  0  0  0
    0.9918    2.2062   -0.0000 C   0  0  0  0  0  0  0  0  0  0  0  0
    2.2872    3.0158   -0.0000 C   0  0  0  0  0  0  0  0  0  0  0  0
   -0.3643    2.9753   -0.0000 C   0  0  0  0  0  0  0  0  0  0  0  0
    2.2467    4.5743   -0.0000 C   0  0  0  0  0  0  0  0  0  0  0  0
   -0.4048    4.5338   -0.0000 C   0  0  0  0  0  0  0  0  0  0  0  0
    0.8906    5.3434   -0.0000 C   0  0  0  0  0  0  0  0  0  0  0  0
    0.8501    6.9019   -0.0000 C   0  0  0  0  0  0  0  0  0  0  0  0
   -0.5060    7.6711   -0.0000 C   0  0  0  0  0  0  0  0  0  0  0  0
   -0.5465    9.2296   -0.0000 C   0  0  0  0  0  0  0  0  0  0  0  0
   -1.9026    9.9987   -0.0000 C   0  0  0  0  0  0  0  0  0  0  0  0
   -1.9431   11.4965   -0.0000 C   0  0  0  0  0  0  0  0  0  0  0  0
   -3.1980    9.2498   -0.0000 C   0  0  0  0  0  0  0  0  0  0  0  0
   -3.2384   12.2251   -0.0000 C   0  0  0  0  0  0  0  0  0  0  0  0
   -0.6882   12.2454   -0.0000 C   0  0  0  0  0  0  0  0  0  0  0  0
   -4.5136   10.0189   -0.0000 C   0  0  0  0  0  0  0  0  0  0  0  0
   -4.5338   11.5167   -0.0000 C   0  0  0  0  0  0  0  0  0  0  0  0
   -3.2789   13.7432   -0.0000 C   0  0  0  0  0  0  0  0  0  0  0  0
   -0.7084   13.7432   -0.0000 C   0  0  0  0  0  0  0  0  0  0  0  0
    1.8621   12.2454   -0.0000 C   0  0  0  0  0  0  0  0  0  0  0  0
   -5.8090    9.2701   -0.0000 C   0  0  0  0  0  0  0  0  0  0  0  0
   -5.8494   12.2454   -0.0000 C   0  0  0  0  0  0  0  0  0  0  0  0
   -4.5743   12.7716   -0.0000 C   0  0  0  0  0  0  0  0  0  0  0  0
   -2.0240   14.5123   -0.0000 C   0  0  0  0  0  0  0  0  0  0  0  0
    0.5465   14.5325   -0.0000 C   0  0  0  0  0  0  0  0  0  0  0  0
   -0.7287   14.9981   -0.0000 C   0  0  0  0  0  0  0  0  0  0  0  0
    1.8419   13.7836   -0.0000 C   0  0  0  0  0  0  0  0  0  0  0  0
   -7.1043   10.0392   -0.0000 C   0  0  0  0  0  0  0  0  0  0  0  0
   -7.1246   11.5370   -0.0000 C   0  0  0  0  0  0  0  0  0  0  0  0
    0.5262   15.7874   -0.0000 O   0  0  0  0  0  0  0  0  0  0  0  0
   -8.1973    9.4522   -0.0000 O   0  0  0  0  0  0  0  0  0  0  0  0
  1  2  2  0  0  0  0
  2  3  1  0  0  0  0
  2  4  1  0  0  0  0
  4  5  2  0  0  0  0
  4  6  1  0  0  0  0
  5  7  1  0  0  0  0
  6  8  2  0  0  0  0
  7  9  2  0  0  0  0
  9 10  1  0  0  0  0
 10 11  1  0  0  0  0
 11 12  1  0  0  0  0
 13 12  1  6  0  0  0
 14 13  1  6  0  0  0
 13 15  1  0  0  0  0
 14 16  1  0  0  0  0
 14 17  1  0  0  0  0
 15 18  1  0  0  0  0
 16 19  1  0  0  0  0
 16 20  1  1  0  0  0
 17 21  1  0  0  0  0
 17 22  1  1  0  0  0
 18 23  2  0  0  0  0
 19 24  1  0  0  0  0
 19 25  1  1  0  0  0
 20 26  1  0  0  0  0
 21 27  1  0  0  0  0
 21 28  1  1  0  0  0
 22 29  1  0  0  0  0
 23 30  1  0  0  0  0
 24 31  2  0  0  0  0
 27 32  2  0  0  0  0
 30 33  2  0  0  0  0
  8  9  1  0  0  0  0
 18 19  1  0  0  0  0
 21 26  1  0  0  0  0
 27 29  1  0  0  0  0
 30 31  1  0  0  0  0
M  CHG  2   2   1   3  -1
M  END
>  <MolRegNo>
2057983

>  <m>
=

>  <Value>
7

>  <Unit>
nM

>  <Type>
Ki

>  <pValue>
8.15

>  <Ligand Efficiency>
0.34

>  <Binding Efficiency>
18.22

>  <Surface Efficiency>
10.55

>  <Assay Index>
985527

>  <Assay Category>


>  <Assay Organism>
Homo sapiens

>  <Target ID>
65

>  <Target Name>
Cytochrome P450 19A1

>  <Target Organism>
Homo sapiens

>  <Target Description>
Target is a single protein chain

>  <Sequence Accession>
P11511

>  <Reference>


>  <Pubmed ID>
26469743

>  <DOI>
10.1016/j.ejmech.2015.09.038

$$$$
2058094
Actelion Java MolfileCreator 1.0

 24 27  0  0  0  0  0  0  0  0999 V2000
    0.0000   -0.0000   -0.0000 O   0  0  0  0  0  0  0  0  0  0  0  0
    0.0000   -1.2211   -0.0000 C   0  0  0  0  0  0  0  0  0  0  0  0
   -1.3049   -1.9753   -0.0000 C   0  0  0  0  0  0  0  0  0  0  0  0
    1.2810   -1.9633   -0.0000 C   0  0  0  0  0  0  0  0  0  0  0  0
   -1.3169   -3.4478   -0.0000 C   0  0  0  0  0  0  0  0  0  0  0  0
   -2.5978   -1.2091   -0.0000 C   0  0  0  0  0  0  0  0  0  0  0  0
   -1.3169   -0.7303   -0.0000 C   0  0  0  0  0  0  0  0  0  0  0  0
    1.2690   -3.4718   -0.0000 C   0  0  0  0  0  0  0  0  0  0  0  0
   -2.6098   -4.1661   -0.0000 C   0  0  0  0  0  0  0  0  0  0  0  0
   -3.9027   -1.9514   -0.0000 C   0  0  0  0  0  0  0  0  0  0  0  0
   -3.9027   -3.4358   -0.0000 C   0  0  0  0  0  0  0  0  0  0  0  0
   -2.5978   -5.6386   -0.0000 C   0  0  0  0  0  0  0  0  0  0  0  0
   -5.1957   -4.1541   -0.0000 C   0  0  0  0  0  0  0  0  0  0  0  0
   -3.8908   -6.3928   -0.0000 C   0  0  0  0  0  0  0  0  0  0  0  0
   -5.2076   -5.6266   -0.0000 C   0  0  0  0  0  0  0  0  0  0  0  0
   -6.5245   -3.4239   -0.0000 C   0  0  0  0  0  0  0  0  0  0  0  0
   -6.5365   -4.9203   -0.0000 C   0  0  0  0  0  0  0  0  0  0  0  0
   -6.5125   -6.3808   -0.0000 C   0  0  0  0  0  0  0  0  0  0  0  0
   -7.7935   -4.1422   -0.0000 C   0  0  0  0  0  0  0  0  0  0  0  0
   -7.8893   -4.1422   -0.0000 O   0  0  0  0  0  0  0  0  0  0  0  0
   -7.8055   -5.6147   -0.0000 C   0  0  0  0  0  0  0  0  0  0  0  0
   -9.2301   -4.9083   -0.0000 C   0  0  0  0  0  0  0  0  0  0  0  0
  -10.3195   -4.2858   -0.0000 O   0  0  0  0  0  0  0  0  0  0  0  0
   -9.2301   -6.1294   -0.0000 C   0  0  0  0  0  0  0  0  0  0  0  0
  1  2  2  0  0  0  0
  2  3  1  0  0  0  0
  2  4  1  0  0  0  0
  3  5  1  0  0  0  0
  3  6  1  0  0  0  0
  3  7  1  6  0  0  0
  4  8  1  0  0  0  0
  5  9  1  0  0  0  0
  6 10  1  0  0  0  0
  9 11  1  0  0  0  0
  9 12  1  1  0  0  0
 11 13  1  0  0  0  0
 12 14  1  0  0  0  0
 13 15  1  0  0  0  0
 13 16  1  0  0  0  0
 13 17  1  6  0  0  0
 15 18  2  0  0  0  0
 16 19  1  0  0  0  0
 17 20  1  0  0  0  0
 18 21  1  0  0  0  0
 20 22  1  0  0  0  0
 22 23  2  0  0  0  0
 22 24  1  0  0  0  0
  5  8  1  6  0  0  0
 11 10  1  6  0  0  0
 14 15  1  0  0  0  0
 19 21  1  0  0  0  0
M  END
>  <MolRegNo>
2058094

>  <m>
=

>  <Value>
170

>  <Unit>
nM

>  <Type>
Ki

>  <pValue>
6.77

>  <Ligand Efficiency>
0.39

>  <Binding Efficiency>
20.48

>  <Surface Efficiency>
15.61

>  <Assay Index>
985527

>  <Assay Category>


>  <Assay Organism>
Homo sapiens

>  <Target ID>
65

>  <Target Name>
Cytochrome P450 19A1

>  <Target Organism>
Homo sapiens

>  <Target Description>
Target is a single protein chain

>  <Sequence Accession>
P11511

>  <Reference>


>  <Pubmed ID>
26469743

>  <DOI>
10.1016/j.ejmech.2015.09.038

$$$$
2058095
Actelion Java MolfileCreator 1.0

 22 25  0  0  0  0  0  0  0  0999 V2000
    0.0000   -0.0000   -0.0000 F   0  0  0  0  0  0  0  0  0  0  0  0
   -0.0204    1.2647   -0.0000 C   0  0  0  0  0  0  0  0  0  0  0  0
   -1.1219    1.8970   -0.0000 F   0  0  0  0  0  0  0  0  0  0  0  0
    1.2851    2.0602   -0.0000 C   0  0  0  0  0  0  0  0  0  0  0  0
    1.2647    0.5916   -0.0000 C   0  0  0  0  0  0  0  0  0  0  0  0
    2.5498    2.8150   -0.0000 C   0  0  0  0  0  0  0  0  0  0  0  0
   -0.0408    2.7946   -0.0000 C   0  0  0  0  0  0  0  0  0  0  0  0
   -0.0408   -0.1632   -0.0000 C   0  0  0  0  0  0  0  0  0  0  0  0
    2.5498   -0.1428   -0.0000 C   0  0  0  0  0  0  0  0  0  0  0  0
    3.8145    2.1214   -0.0000 C   0  0  0  0  0  0  0  0  0  0  0  0
    2.5090    4.3448   -0.0000 C   0  0  0  0  0  0  0  0  0  0  0  0
   -1.3259    2.0806   -0.0000 C   0  0  0  0  0  0  0  0  0  0  0  0
   -1.3463    0.6119   -0.0000 C   0  0  0  0  0  0  0  0  0  0  0  0
    3.8145    0.6527   -0.0000 C   0  0  0  0  0  0  0  0  0  0  0  0
    5.0792    2.8762   -0.0000 C   0  0  0  0  0  0  0  0  0  0  0  0
    3.7737    5.1200   -0.0000 C   0  0  0  0  0  0  0  0  0  0  0  0
    5.0588    4.3856   -0.0000 C   0  0  0  0  0  0  0  0  0  0  0  0
    7.6494    2.8762   -0.0000 C   0  0  0  0  0  0  0  0  0  0  0  0
    6.3235    5.1812   -0.0000 C   0  0  0  0  0  0  0  0  0  0  0  0
    5.0384    5.6503   -0.0000 C   0  0  0  0  0  0  0  0  0  0  0  0
    7.6290    4.4264   -0.0000 C   0  0  0  0  0  0  0  0  0  0  0  0
    6.3031    6.4459   -0.0000 O   0  0  0  0  0  0  0  0  0  0  0  0
  1  2  1  0  0  0  0
  2  3  1  0  0  0  0
  4  2  1  1  0  0  0
  4  5  1  0  0  0  0
  4  6  1  0  0  0  0
  4  7  1  0  0  0  0
  5  8  2  0  0  0  0
  5  9  1  0  0  0  0
  6 10  1  0  0  0  0
  6 11  1  1  0  0  0
  7 12  1  0  0  0  0
  8 13  1  0  0  0  0
  9 14  1  0  0  0  0
 10 15  1  0  0  0  0
 11 16  1  0  0  0  0
 15 17  1  0  0  0  0
 15 18  1  1  0  0  0
 17 19  1  0  0  0  0
 17 20  1  1  0  0  0
 18 21  1  0  0  0  0
 19 22  2  0  0  0  0
 10 14  1  6  0  0  0
 12 13  1  0  0  0  0
 16 17  1  0  0  0  0
 19 21  1  0  0  0  0
M  END
>  <MolRegNo>
2058095

>  <m>
=

>  <Value>
170

>  <Unit>
nM

>  <Type>
Ki

>  <pValue>
6.77

>  <Ligand Efficiency>
0.42

>  <Binding Efficiency>
21.95

>  <Surface Efficiency>
39.66

>  <Assay Index>
985527

>  <Assay Category>


>  <Assay Organism>
Homo sapiens

>  <Target ID>
65

>  <Target Name>
Cytochrome P450 19A1

>  <Target Organism>
Homo sapiens

>  <Target Description>
Target is a single protein chain

>  <Sequence Accession>
P11511

>  <Reference>


>  <Pubmed ID>
26469743

>  <DOI>
10.1016/j.ejmech.2015.09.038

$$$$
2058096
Actelion Java MolfileCreator 1.0

 21 24  0  0  0  0  0  0  0  0999 V2000
    0.0000   -0.0000   -0.0000 O   0  0  0  0  0  0  0  0  0  0  0  0
    0.0000   -1.2152   -0.0000 C   0  0  0  0  0  0  0  0  0  0  0  0
   -1.2986   -1.9658   -0.0000 C   0  0  0  0  0  0  0  0  0  0  0  0
    1.2748   -1.9539   -0.0000 C   0  0  0  0  0  0  0  0  0  0  0  0
   -1.3105   -3.4312   -0.0000 C   0  0  0  0  0  0  0  0  0  0  0  0
   -2.5853   -1.2033   -0.0000 C   0  0  0  0  0  0  0  0  0  0  0  0
   -1.3105   -0.7268   -0.0000 C   0  0  0  0  0  0  0  0  0  0  0  0
    1.2629   -3.4551   -0.0000 C   0  0  0  0  0  0  0  0  0  0  0  0
   -2.5972   -4.1461   -0.0000 C   0  0  0  0  0  0  0  0  0  0  0  0
   -3.8840   -1.9420   -0.0000 C   0  0  0  0  0  0  0  0  0  0  0  0
   -3.8840   -3.4193   -0.0000 C   0  0  0  0  0  0  0  0  0  0  0  0
   -2.5853   -5.6115   -0.0000 C   0  0  0  0  0  0  0  0  0  0  0  0
   -5.1707   -4.1341   -0.0000 C   0  0  0  0  0  0  0  0  0  0  0  0
   -3.8720   -6.3621   -0.0000 C   0  0  0  0  0  0  0  0  0  0  0  0
   -5.1826   -5.5996   -0.0000 C   0  0  0  0  0  0  0  0  0  0  0  0
   -6.4931   -3.4074   -0.0000 C   0  0  0  0  0  0  0  0  0  0  0  0
   -6.5050   -4.8966   -0.0000 C   0  0  0  0  0  0  0  0  0  0  0  0
   -6.4812   -6.3501   -0.0000 C   0  0  0  0  0  0  0  0  0  0  0  0
   -7.7560   -4.1222   -0.0000 C   0  0  0  0  0  0  0  0  0  0  0  0
   -7.5892   -4.2771   -0.0000 O   0  0  0  0  0  0  0  0  0  0  0  0
   -7.7679   -5.5877   -0.0000 C   0  0  0  0  0  0  0  0  0  0  0  0
  2  1  1  6  0  0  0
  2  3  1  0  0  0  0
  2  4  1  0  0  0  0
  3  5  1  0  0  0  0
  3  6  1  0  0  0  0
  3  7  1  6  0  0  0
  4  8  1  0  0  0  0
  5  9  1  0  0  0  0
  6 10  1  0  0  0  0
  9 11  1  0  0  0  0
  9 12  1  1  0  0  0
 11 13  1  0  0  0  0
 12 14  1  0  0  0  0
 13 15  1  0  0  0  0
 13 16  1  0  0  0  0
 13 17  1  6  0  0  0
 15 18  2  0  0  0  0
 16 19  1  0  0  0  0
 17 20  1  0  0  0  0
 18 21  1  0  0  0  0
  5  8  1  6  0  0  0
 11 10  1  6  0  0  0
 14 15  1  0  0  0  0
 19 21  1  0  0  0  0
M  END
>  <MolRegNo>
2058096

>  <m>
=

>  <Value>
170

>  <Unit>
nM

>  <Type>
Ki

>  <pValue>
6.77

>  <Ligand Efficiency>
0.44

>  <Binding Efficiency>
23.31

>  <Surface Efficiency>
16.73

>  <Assay Index>
985527

>  <Assay Category>


>  <Assay Organism>
Homo sapiens

>  <Target ID>
65

>  <Target Name>
Cytochrome P450 19A1

>  <Target Organism>
Homo sapiens

>  <Target Description>
Target is a single protein chain

>  <Sequence Accession>
P11511

>  <Reference>


>  <Pubmed ID>
26469743

>  <DOI>
10.1016/j.ejmech.2015.09.038

$$$$
2058098
Actelion Java MolfileCreator 1.0

 28 31  0  0  0  0  0  0  0  0999 V2000
    0.0000   -0.0000   -0.0000 O   0  0  0  0  0  0  0  0  0  0  0  0
   -0.0414    1.2848   -0.0000 C   0  0  0  0  0  0  0  0  0  0  0  0
   -1.3884    2.0722   -0.0000 C   0  0  0  0  0  0  0  0  0  0  0  0
    1.2433    2.0929   -0.0000 C   0  0  0  0  0  0  0  0  0  0  0  0
   -2.7146    1.3055   -0.0000 C   0  0  0  0  0  0  0  0  0  0  0  0
   -1.4091    3.6056   -0.0000 C   0  0  0  0  0  0  0  0  0  0  0  0
    1.2019    3.6263   -0.0000 C   0  0  0  0  0  0  0  0  0  0  0  0
   -4.0408    2.0929   -0.0000 C   0  0  0  0  0  0  0  0  0  0  0  0
   -0.1243    4.3723   -0.0000 C   0  0  0  0  0  0  0  0  0  0  0  0
   -2.7767    2.8389   -0.0000 C   0  0  0  0  0  0  0  0  0  0  0  0
   -2.7560    4.3516   -0.0000 C   0  0  0  0  0  0  0  0  0  0  0  0
    2.4866    4.3930   -0.0000 C   0  0  0  0  0  0  0  0  0  0  0  0
   -4.9732    1.5956   -0.0000 O   0  0  0  0  0  0  0  0  0  0  0  0
   -4.0615    3.6263   -0.0000 C   0  0  0  0  0  0  0  0  0  0  0  0
   -0.1658    5.9264   -0.0000 C   0  0  0  0  0  0  0  0  0  0  0  0
   -2.7767    1.2848   -0.0000 O   0  0  0  0  0  0  0  0  0  0  0  0
   -4.1651    3.6263   -0.0000 C   0  0  0  0  0  0  0  0  0  0  0  0
    2.4659    5.9264   -0.0000 C   0  0  0  0  0  0  0  0  0  0  0  0
    5.0976    4.3930   -0.0000 C   0  0  0  0  0  0  0  0  0  0  0  0
    1.1190    6.7139   -0.0000 C   0  0  0  0  0  0  0  0  0  0  0  0
   -4.1444    0.5180   -0.0000 C   0  0  0  0  0  0  0  0  0  0  0  0
   -5.2841    4.2687   -0.0000 C   0  0  0  0  0  0  0  0  0  0  0  0
    3.7506    6.7346   -0.0000 C   0  0  0  0  0  0  0  0  0  0  0  0
    2.4452    7.2112   -0.0000 C   0  0  0  0  0  0  0  0  0  0  0  0
    5.0768    5.9679   -0.0000 C   0  0  0  0  0  0  0  0  0  0  0  0
   -4.1651   -0.7253   -0.0000 O   0  0  0  0  0  0  0  0  0  0  0  0
   -5.0768    1.0568   -0.0000 C   0  0  0  0  0  0  0  0  0  0  0  0
    3.7299    8.0193   -0.0000 O   0  0  0  0  0  0  0  0  0  0  0  0
  1  2  2  0  0  0  0
  2  3  1  0  0  0  0
  2  4  1  0  0  0  0
  3  5  2  0  0  0  0
  3  6  1  0  0  0  0
  7  4  1  1  0  0  0
  5  8  1  0  0  0  0
  6  9  1  0  0  0  0
  6 10  1  1  0  0  0
  6 11  1  0  0  0  0
  7 12  1  0  0  0  0
  8 13  2  0  0  0  0
  8 14  1  0  0  0  0
  9 15  1  6  0  0  0
 10 16  1  1  0  0  0
 10 17  1  0  0  0  0
 12 18  1  0  0  0  0
 12 19  1  6  0  0  0
 15 20  1  0  0  0  0
 16 21  1  0  0  0  0
 17 22  3  0  0  0  0
 18 23  1  0  0  0  0
 18 24  1  6  0  0  0
 19 25  1  0  0  0  0
 21 26  2  0  0  0  0
 21 27  1  0  0  0  0
 23 28  2  0  0  0  0
  7  9  1  0  0  0  0
 11 14  1  0  0  0  0
 18 20  1  0  0  0  0
 23 25  1  0  0  0  0
M  END
>  <MolRegNo>
2058098

>  <m>
=

>  <Value>
75000

>  <Unit>
nM

>  <Type>
Ki

>  <pValue>
4.12

>  <Ligand Efficiency>
0.2

>  <Binding Efficiency>
10.79

>  <Surface Efficiency>
5.32

>  <Assay Index>
985527

>  <Assay Category>


>  <Assay Organism>
Homo sapiens

>  <Target ID>
65

>  <Target Name>
Cytochrome P450 19A1

>  <Target Organism>
Homo sapiens

>  <Target Description>
Target is a single protein chain

>  <Sequence Accession>
P11511

>  <Reference>


>  <Pubmed ID>
26469743

>  <DOI>
10.1016/j.ejmech.2015.09.038

$$$$
2058099
Actelion Java MolfileCreator 1.0

 28 31  0  0  0  0  0  0  0  0999 V2000
    0.0000   -0.0000   -0.0000 O   0  0  0  0  0  0  0  0  0  0  0  0
   -0.0414    1.2848   -0.0000 C   0  0  0  0  0  0  0  0  0  0  0  0
   -1.3884    2.0722   -0.0000 C   0  0  0  0  0  0  0  0  0  0  0  0
    1.2433    2.0929   -0.0000 C   0  0  0  0  0  0  0  0  0  0  0  0
   -2.7146    1.3055   -0.0000 C   0  0  0  0  0  0  0  0  0  0  0  0
   -1.4091    3.6056   -0.0000 C   0  0  0  0  0  0  0  0  0  0  0  0
    1.2019    3.6263   -0.0000 C   0  0  0  0  0  0  0  0  0  0  0  0
   -4.0408    2.0929   -0.0000 C   0  0  0  0  0  0  0  0  0  0  0  0
   -0.1243    4.3723   -0.0000 C   0  0  0  0  0  0  0  0  0  0  0  0
   -2.7767    2.8389   -0.0000 C   0  0  0  0  0  0  0  0  0  0  0  0
   -2.7560    4.3516   -0.0000 C   0  0  0  0  0  0  0  0  0  0  0  0
    2.4866    4.3930   -0.0000 C   0  0  0  0  0  0  0  0  0  0  0  0
   -4.9732    1.5956   -0.0000 O   0  0  0  0  0  0  0  0  0  0  0  0
   -4.0615    3.6263   -0.0000 C   0  0  0  0  0  0  0  0  0  0  0  0
   -0.1658    5.9264   -0.0000 C   0  0  0  0  0  0  0  0  0  0  0  0
   -2.7767    1.2848   -0.0000 O   0  0  0  0  0  0  0  0  0  0  0  0
   -4.1651    3.6263   -0.0000 C   0  0  0  0  0  0  0  0  0  0  0  0
    2.4659    5.9264   -0.0000 C   0  0  0  0  0  0  0  0  0  0  0  0
    5.0976    4.3930   -0.0000 C   0  0  0  0  0  0  0  0  0  0  0  0
    1.1190    6.7139   -0.0000 C   0  0  0  0  0  0  0  0  0  0  0  0
   -4.1444    0.5180   -0.0000 C   0  0  0  0  0  0  0  0  0  0  0  0
   -5.2841    4.2687   -0.0000 C   0  0  0  0  0  0  0  0  0  0  0  0
    3.7506    6.7346   -0.0000 C   0  0  0  0  0  0  0  0  0  0  0  0
    2.4452    7.2112   -0.0000 C   0  0  0  0  0  0  0  0  0  0  0  0
    5.0768    5.9679   -0.0000 C   0  0  0  0  0  0  0  0  0  0  0  0
   -4.1651   -0.7253   -0.0000 O   0  0  0  0  0  0  0  0  0  0  0  0
   -5.0768    1.0568   -0.0000 C   0  0  0  0  0  0  0  0  0  0  0  0
    3.7299    8.0193   -0.0000 O   0  0  0  0  0  0  0  0  0  0  0  0
  1  2  2  0  0  0  0
  2  3  1  0  0  0  0
  2  4  1  0  0  0  0
  3  5  2  0  0  0  0
  3  6  1  0  0  0  0
  7  4  1  6  0  0  0
  5  8  1  0  0  0  0
  6  9  1  0  0  0  0
  6 10  1  1  0  0  0
  6 11  1  0  0  0  0
  7 12  1  0  0  0  0
  8 13  2  0  0  0  0
  8 14  1  0  0  0  0
  9 15  1  1  0  0  0
 10 16  1  1  0  0  0
 10 17  1  0  0  0  0
 12 18  1  0  0  0  0
 12 19  1  1  0  0  0
 15 20  1  0  0  0  0
 16 21  1  0  0  0  0
 17 22  3  0  0  0  0
 18 23  1  0  0  0  0
 18 24  1  1  0  0  0
 19 25  1  0  0  0  0
 21 26  2  0  0  0  0
 21 27  1  0  0  0  0
 23 28  2  0  0  0  0
  7  9  1  0  0  0  0
 11 14  1  0  0  0  0
 18 20  1  0  0  0  0
 23 25  1  0  0  0  0
M  END
>  <MolRegNo>
2058099

>  <m>
=

>  <Value>
67000

>  <Unit>
nM

>  <Type>
Ki

>  <pValue>
4.17

>  <Ligand Efficiency>
0.2

>  <Binding Efficiency>
10.91

>  <Surface Efficiency>
5.39

>  <Assay Index>
985527

>  <Assay Category>


>  <Assay Organism>
Homo sapiens

>  <Target ID>
65

>  <Target Name>
Cytochrome P450 19A1

>  <Target Organism>
Homo sapiens

>  <Target Description>
Target is a single protein chain

>  <Sequence Accession>
P11511

>  <Reference>


>  <Pubmed ID>
26469743

>  <DOI>
10.1016/j.ejmech.2015.09.038

$$$$
2058107
Actelion Java MolfileCreator 1.0

 21 24  0  0  0  0  0  0  0  0999 V2000
    0.0000   -0.0000   -0.0000 Br  0  0  0  0  0  0  0  0  0  0  0  0
   -1.0768   -0.5892   -0.0000 C   0  0  0  0  0  0  0  0  0  0  0  0
   -2.3975    0.1829   -0.0000 C   0  0  0  0  0  0  0  0  0  0  0  0
   -1.0972   -2.0927   -0.0000 C   0  0  0  0  0  0  0  0  0  0  0  0
   -2.4178    1.4426   -0.0000 O   0  0  0  0  0  0  0  0  0  0  0  0
   -3.6978   -0.5689   -0.0000 C   0  0  0  0  0  0  0  0  0  0  0  0
   -3.6978   -2.0521   -0.0000 C   0  0  0  0  0  0  0  0  0  0  0  0
   -4.9982    0.2032   -0.0000 C   0  0  0  0  0  0  0  0  0  0  0  0
   -3.7182    0.6908   -0.0000 C   0  0  0  0  0  0  0  0  0  0  0  0
   -4.9982   -2.7632   -0.0000 C   0  0  0  0  0  0  0  0  0  0  0  0
   -6.2985   -0.5283   -0.0000 C   0  0  0  0  0  0  0  0  0  0  0  0
   -6.2985   -2.0318   -0.0000 C   0  0  0  0  0  0  0  0  0  0  0  0
   -4.9982   -4.2261   -0.0000 C   0  0  0  0  0  0  0  0  0  0  0  0
   -7.5988   -2.7429   -0.0000 C   0  0  0  0  0  0  0  0  0  0  0  0
   -6.2985   -4.9779   -0.0000 C   0  0  0  0  0  0  0  0  0  0  0  0
   -7.6192   -4.2058   -0.0000 C   0  0  0  0  0  0  0  0  0  0  0  0
   -8.9195   -2.0115   -0.0000 C   0  0  0  0  0  0  0  0  0  0  0  0
   -7.6395   -1.4832   -0.0000 C   0  0  0  0  0  0  0  0  0  0  0  0
   -8.9195   -4.9575   -0.0000 C   0  0  0  0  0  0  0  0  0  0  0  0
  -10.1995   -2.7226   -0.0000 C   0  0  0  0  0  0  0  0  0  0  0  0
  -10.2198   -4.1855   -0.0000 C   0  0  0  0  0  0  0  0  0  0  0  0
  2  1  1  1  0  0  0
  2  3  1  0  0  0  0
  2  4  1  0  0  0  0
  3  5  2  0  0  0  0
  3  6  1  0  0  0  0
  7  4  1  6  0  0  0
  6  8  1  0  0  0  0
  6  9  1  6  0  0  0
  7 10  1  0  0  0  0
  8 11  1  0  0  0  0
 10 12  1  0  0  0  0
 10 13  1  1  0  0  0
 12 14  1  0  0  0  0
 13 15  1  0  0  0  0
 14 16  1  0  0  0  0
 14 17  1  0  0  0  0
 14 18  1  6  0  0  0
 16 19  2  0  0  0  0
 17 20  1  0  0  0  0
 19 21  1  0  0  0  0
  6  7  1  0  0  0  0
 12 11  1  6  0  0  0
 15 16  1  0  0  0  0
 20 21  1  0  0  0  0
M  END
>  <MolRegNo>
2058107

>  <m>
=

>  <Value>
228

>  <Unit>
nM

>  <Type>
Ki

>  <pValue>
6.64

>  <Ligand Efficiency>
0.43

>  <Binding Efficiency>
18.91

>  <Surface Efficiency>
38.91

>  <Assay Index>
985527

>  <Assay Category>


>  <Assay Organism>
Homo sapiens

>  <Target ID>
65

>  <Target Name>
Cytochrome P450 19A1

>  <Target Organism>
Homo sapiens

>  <Target Description>
Target is a single protein chain

>  <Sequence Accession>
P11511

>  <Reference>


>  <Pubmed ID>
26469743

>  <DOI>
10.1016/j.ejmech.2015.09.038

$$$$
2058108
Actelion Java MolfileCreator 1.0

 21 24  0  0  0  0  0  0  0  0999 V2000
    0.0000   -0.0000   -0.0000 Br  0  0  0  0  0  0  0  0  0  0  0  0
   -1.0768   -0.5892   -0.0000 C   0  0  0  0  0  0  0  0  0  0  0  0
   -2.3975    0.1829   -0.0000 C   0  0  0  0  0  0  0  0  0  0  0  0
   -1.0972   -2.0927   -0.0000 C   0  0  0  0  0  0  0  0  0  0  0  0
   -2.4178    1.4426   -0.0000 O   0  0  0  0  0  0  0  0  0  0  0  0
   -3.6978   -0.5689   -0.0000 C   0  0  0  0  0  0  0  0  0  0  0  0
   -3.6978   -2.0521   -0.0000 C   0  0  0  0  0  0  0  0  0  0  0  0
   -4.9982    0.2032   -0.0000 C   0  0  0  0  0  0  0  0  0  0  0  0
   -3.7182    0.6908   -0.0000 C   0  0  0  0  0  0  0  0  0  0  0  0
   -4.9982   -2.7632   -0.0000 C   0  0  0  0  0  0  0  0  0  0  0  0
   -6.2985   -0.5283   -0.0000 C   0  0  0  0  0  0  0  0  0  0  0  0
   -6.2985   -2.0318   -0.0000 C   0  0  0  0  0  0  0  0  0  0  0  0
   -4.9982   -4.2261   -0.0000 C   0  0  0  0  0  0  0  0  0  0  0  0
   -7.5988   -2.7429   -0.0000 C   0  0  0  0  0  0  0  0  0  0  0  0
   -6.2985   -4.9779   -0.0000 C   0  0  0  0  0  0  0  0  0  0  0  0
   -7.6192   -4.2058   -0.0000 C   0  0  0  0  0  0  0  0  0  0  0  0
   -8.9195   -2.0115   -0.0000 C   0  0  0  0  0  0  0  0  0  0  0  0
   -7.6395   -1.4832   -0.0000 C   0  0  0  0  0  0  0  0  0  0  0  0
   -8.9195   -4.9575   -0.0000 C   0  0  0  0  0  0  0  0  0  0  0  0
  -10.1995   -2.7226   -0.0000 C   0  0  0  0  0  0  0  0  0  0  0  0
  -10.2198   -4.1855   -0.0000 C   0  0  0  0  0  0  0  0  0  0  0  0
  2  1  1  6  0  0  0
  2  3  1  0  0  0  0
  2  4  1  0  0  0  0
  3  5  2  0  0  0  0
  3  6  1  0  0  0  0
  7  4  1  6  0  0  0
  6  8  1  0  0  0  0
  6  9  1  6  0  0  0
  7 10  1  0  0  0  0
  8 11  1  0  0  0  0
 10 12  1  0  0  0  0
 10 13  1  1  0  0  0
 12 14  1  0  0  0  0
 13 15  1  0  0  0  0
 14 16  1  0  0  0  0
 14 17  1  0  0  0  0
 14 18  1  6  0  0  0
 16 19  2  0  0  0  0
 17 20  1  0  0  0  0
 19 21  1  0  0  0  0
  6  7  1  0  0  0  0
 12 11  1  6  0  0  0
 15 16  1  0  0  0  0
 20 21  1  0  0  0  0
M  END
>  <MolRegNo>
2058108

>  <m>
=

>  <Value>
455

>  <Unit>
nM

>  <Type>
Ki

>  <pValue>
6.34

>  <Ligand Efficiency>
0.41

>  <Binding Efficiency>
18.05

>  <Surface Efficiency>
37.15

>  <Assay Index>
985527

>  <Assay Category>


>  <Assay Organism>
Homo sapiens

>  <Target ID>
65

>  <Target Name>
Cytochrome P450 19A1

>  <Target Organism>
Homo sapiens

>  <Target Description>
Target is a single protein chain

>  <Sequence Accession>
P11511

>  <Reference>


>  <Pubmed ID>
26469743

>  <DOI>
10.1016/j.ejmech.2015.09.038

$$$$
2058230
Actelion Java MolfileCreator 1.0

 24 28  0  0  0  0  0  0  0  0999 V2000
    0.0000   -0.0000   -0.0000 F   0  0  0  0  0  0  0  0  0  0  0  0
    0.6219    1.0544   -0.0000 C   0  0  0  0  0  0  0  0  0  0  0  0
    1.8250    1.0139   -0.0000 F   0  0  0  0  0  0  0  0  0  0  0  0
   -0.7841    2.0143   -0.0000 C   0  0  0  0  0  0  0  0  0  0  0  0
    0.6083    2.7848   -0.0000 C   0  0  0  0  0  0  0  0  0  0  0  0
   -2.1224    2.8254   -0.0000 C   0  0  0  0  0  0  0  0  0  0  0  0
    0.5948    4.3530   -0.0000 C   0  0  0  0  0  0  0  0  0  0  0  0
   -3.5013    2.0413   -0.0000 C   0  0  0  0  0  0  0  0  0  0  0  0
   -2.1359    4.3665   -0.0000 C   0  0  0  0  0  0  0  0  0  0  0  0
   -0.8111    5.1776   -0.0000 C   0  0  0  0  0  0  0  0  0  0  0  0
    1.9061    5.1776   -0.0000 C   0  0  0  0  0  0  0  0  0  0  0  0
   -4.9072    2.8524   -0.0000 C   0  0  0  0  0  0  0  0  0  0  0  0
   -3.5148    5.1911   -0.0000 C   0  0  0  0  0  0  0  0  0  0  0  0
   -2.1630    5.3939   -0.0000 C   0  0  0  0  0  0  0  0  0  0  0  0
   -0.7976    6.7458   -0.0000 C   0  0  0  0  0  0  0  0  0  0  0  0
    1.8926    6.7728   -0.0000 C   0  0  0  0  0  0  0  0  0  0  0  0
    3.3932    4.7180   -0.0000 C   0  0  0  0  0  0  0  0  0  0  0  0
   -5.9752    2.2576   -0.0000 O   0  0  0  0  0  0  0  0  0  0  0  0
   -4.9208    4.4341   -0.0000 C   0  0  0  0  0  0  0  0  0  0  0  0
    0.5543    7.5299   -0.0000 C   0  0  0  0  0  0  0  0  0  0  0  0
    3.3796    7.2189   -0.0000 C   0  0  0  0  0  0  0  0  0  0  0  0
    2.0143    8.0030   -0.0000 C   0  0  0  0  0  0  0  0  0  0  0  0
    4.2719    5.9887   -0.0000 C   0  0  0  0  0  0  0  0  0  0  0  0
    3.7582    8.3815   -0.0000 O   0  0  0  0  0  0  0  0  0  0  0  0
  1  2  1  0  0  0  0
  2  3  1  0  0  0  0
  4  2  1  1  0  0  0
  5  2  1  1  0  0  0
  4  6  1  0  0  0  0
  7  5  1  1  0  0  0
  6  8  2  0  0  0  0
  6  9  1  0  0  0  0
  7 10  1  0  0  0  0
  7 11  1  0  0  0  0
  8 12  1  0  0  0  0
  9 13  1  0  0  0  0
  9 14  1  6  0  0  0
 10 15  1  6  0  0  0
 11 16  1  0  0  0  0
 11 17  1  6  0  0  0
 12 18  2  0  0  0  0
 12 19  1  0  0  0  0
 15 20  1  0  0  0  0
 16 21  1  0  0  0  0
 16 22  1  6  0  0  0
 17 23  1  0  0  0  0
 21 24  2  0  0  0  0
  4  5  1  0  0  0  0
  9 10  1  0  0  0  0
 13 19  1  0  0  0  0
 16 20  1  0  0  0  0
 21 23  1  0  0  0  0
M  END
>  <MolRegNo>
2058230

>  <m>
=

>  <Value>
5

>  <Unit>
nM

>  <Type>
Ki

>  <pValue>
8.3

>  <Ligand Efficiency>
0.47

>  <Binding Efficiency>
24.82

>  <Surface Efficiency>
24.31

>  <Assay Index>
985527

>  <Assay Category>


>  <Assay Organism>
Homo sapiens

>  <Target ID>
65

>  <Target Name>
Cytochrome P450 19A1

>  <Target Organism>
Homo sapiens

>  <Target Description>
Target is a single protein chain

>  <Sequence Accession>
P11511

>  <Reference>


>  <Pubmed ID>
26469743

>  <DOI>
10.1016/j.ejmech.2015.09.038

$$$$
2058231
Actelion Java MolfileCreator 1.0

 23 27  0  0  0  0  0  0  0  0999 V2000
    0.0000   -0.0000   -0.0000 F   0  0  0  0  0  0  0  0  0  0  0  0
    0.6176    1.0473   -0.0000 C   0  0  0  0  0  0  0  0  0  0  0  0
    1.8126    1.0070   -0.0000 F   0  0  0  0  0  0  0  0  0  0  0  0
   -0.7787    2.0006   -0.0000 C   0  0  0  0  0  0  0  0  0  0  0  0
    0.6042    2.7659   -0.0000 C   0  0  0  0  0  0  0  0  0  0  0  0
   -2.1080    2.8062   -0.0000 C   0  0  0  0  0  0  0  0  0  0  0  0
    0.5908    4.3234   -0.0000 C   0  0  0  0  0  0  0  0  0  0  0  0
   -3.4775    2.0274   -0.0000 C   0  0  0  0  0  0  0  0  0  0  0  0
   -2.1214    4.3368   -0.0000 C   0  0  0  0  0  0  0  0  0  0  0  0
   -0.8056    5.1424   -0.0000 C   0  0  0  0  0  0  0  0  0  0  0  0
    1.8931    5.1424   -0.0000 C   0  0  0  0  0  0  0  0  0  0  0  0
   -4.8738    2.8330   -0.0000 C   0  0  0  0  0  0  0  0  0  0  0  0
   -3.4909    5.1558   -0.0000 C   0  0  0  0  0  0  0  0  0  0  0  0
   -2.1483    5.3572   -0.0000 C   0  0  0  0  0  0  0  0  0  0  0  0
   -0.7922    6.6999   -0.0000 C   0  0  0  0  0  0  0  0  0  0  0  0
    1.8797    6.7267   -0.0000 C   0  0  0  0  0  0  0  0  0  0  0  0
    3.3701    4.6859   -0.0000 C   0  0  0  0  0  0  0  0  0  0  0  0
   -4.8873    4.4039   -0.0000 C   0  0  0  0  0  0  0  0  0  0  0  0
    0.5505    7.4786   -0.0000 C   0  0  0  0  0  0  0  0  0  0  0  0
    3.3566    7.1698   -0.0000 C   0  0  0  0  0  0  0  0  0  0  0  0
    2.0006    7.9485   -0.0000 C   0  0  0  0  0  0  0  0  0  0  0  0
    4.2428    5.9480   -0.0000 C   0  0  0  0  0  0  0  0  0  0  0  0
    3.7326    8.3245   -0.0000 O   0  0  0  0  0  0  0  0  0  0  0  0
  1  2  1  0  0  0  0
  2  3  1  0  0  0  0
  4  2  1  1  0  0  0
  5  2  1  1  0  0  0
  4  6  1  0  0  0  0
  7  5  1  1  0  0  0
  6  8  2  0  0  0  0
  6  9  1  0  0  0  0
  7 10  1  0  0  0  0
  7 11  1  0  0  0  0
  8 12  1  0  0  0  0
  9 13  1  0  0  0  0
  9 14  1  6  0  0  0
 10 15  1  6  0  0  0
 11 16  1  0  0  0  0
 11 17  1  6  0  0  0
 12 18  1  0  0  0  0
 15 19  1  0  0  0  0
 16 20  1  0  0  0  0
 16 21  1  6  0  0  0
 17 22  1  0  0  0  0
 20 23  1  6  0  0  0
  4  5  1  0  0  0  0
  9 10  1  0  0  0  0
 13 18  1  0  0  0  0
 16 19  1  0  0  0  0
 20 22  1  0  0  0  0
M  END
>  <MolRegNo>
2058231

>  <m>
=

>  <Value>
5

>  <Unit>
nM

>  <Type>
Ki

>  <pValue>
8.3

>  <Ligand Efficiency>
0.49

>  <Binding Efficiency>
25.74

>  <Surface Efficiency>
41.03

>  <Assay Index>
985527

>  <Assay Category>


>  <Assay Organism>
Homo sapiens

>  <Target ID>
65

>  <Target Name>
Cytochrome P450 19A1

>  <Target Organism>
Homo sapiens

>  <Target Description>
Target is a single protein chain

>  <Sequence Accession>
P11511

>  <Reference>


>  <Pubmed ID>
26469743

>  <DOI>
10.1016/j.ejmech.2015.09.038

$$$$
2058232
Actelion Java MolfileCreator 1.0

 23 27  0  0  0  0  0  0  0  0999 V2000
    0.0000   -0.0000   -0.0000 F   0  0  0  0  0  0  0  0  0  0  0  0
    0.6176    1.0473   -0.0000 C   0  0  0  0  0  0  0  0  0  0  0  0
    1.8126    1.0070   -0.0000 F   0  0  0  0  0  0  0  0  0  0  0  0
   -0.7787    2.0006   -0.0000 C   0  0  0  0  0  0  0  0  0  0  0  0
    0.6042    2.7659   -0.0000 C   0  0  0  0  0  0  0  0  0  0  0  0
   -2.1080    2.8062   -0.0000 C   0  0  0  0  0  0  0  0  0  0  0  0
    0.5908    4.3234   -0.0000 C   0  0  0  0  0  0  0  0  0  0  0  0
   -3.4775    2.0274   -0.0000 C   0  0  0  0  0  0  0  0  0  0  0  0
   -2.1214    4.3368   -0.0000 C   0  0  0  0  0  0  0  0  0  0  0  0
   -0.8056    5.1424   -0.0000 C   0  0  0  0  0  0  0  0  0  0  0  0
    1.8931    5.1424   -0.0000 C   0  0  0  0  0  0  0  0  0  0  0  0
   -4.8738    2.8330   -0.0000 C   0  0  0  0  0  0  0  0  0  0  0  0
   -3.4909    5.1558   -0.0000 C   0  0  0  0  0  0  0  0  0  0  0  0
   -2.1483    5.3572   -0.0000 C   0  0  0  0  0  0  0  0  0  0  0  0
   -0.7922    6.6999   -0.0000 C   0  0  0  0  0  0  0  0  0  0  0  0
    1.8797    6.7267   -0.0000 C   0  0  0  0  0  0  0  0  0  0  0  0
    3.3701    4.6859   -0.0000 C   0  0  0  0  0  0  0  0  0  0  0  0
   -4.8873    4.4039   -0.0000 C   0  0  0  0  0  0  0  0  0  0  0  0
    0.5505    7.4786   -0.0000 C   0  0  0  0  0  0  0  0  0  0  0  0
    3.3566    7.1698   -0.0000 C   0  0  0  0  0  0  0  0  0  0  0  0
    2.0006    7.9485   -0.0000 C   0  0  0  0  0  0  0  0  0  0  0  0
    4.2428    5.9480   -0.0000 C   0  0  0  0  0  0  0  0  0  0  0  0
    3.7326    8.3245   -0.0000 O   0  0  0  0  0  0  0  0  0  0  0  0
  1  2  1  0  0  0  0
  2  3  1  0  0  0  0
  4  2  1  1  0  0  0
  5  2  1  1  0  0  0
  4  6  1  0  0  0  0
  7  5  1  1  0  0  0
  6  8  2  0  0  0  0
  6  9  1  0  0  0  0
  7 10  1  0  0  0  0
  7 11  1  0  0  0  0
  8 12  1  0  0  0  0
  9 13  1  0  0  0  0
  9 14  1  6  0  0  0
 10 15  1  6  0  0  0
 11 16  1  0  0  0  0
 11 17  1  6  0  0  0
 12 18  1  0  0  0  0
 15 19  1  0  0  0  0
 16 20  1  0  0  0  0
 16 21  1  6  0  0  0
 17 22  1  0  0  0  0
 20 23  2  0  0  0  0
  4  5  1  0  0  0  0
  9 10  1  0  0  0  0
 13 18  1  0  0  0  0
 16 19  1  0  0  0  0
 20 22  1  0  0  0  0
M  END
>  <MolRegNo>
2058232

>  <m>
=

>  <Value>
5

>  <Unit>
nM

>  <Type>
Ki

>  <pValue>
8.3

>  <Ligand Efficiency>
0.49

>  <Binding Efficiency>
25.91

>  <Surface Efficiency>
48.63

>  <Assay Index>
985527

>  <Assay Category>


>  <Assay Organism>
Homo sapiens

>  <Target ID>
65

>  <Target Name>
Cytochrome P450 19A1

>  <Target Organism>
Homo sapiens

>  <Target Description>
Target is a single protein chain

>  <Sequence Accession>
P11511

>  <Reference>


>  <Pubmed ID>
26469743

>  <DOI>
10.1016/j.ejmech.2015.09.038

$$$$
2057825
Actelion Java MolfileCreator 1.0

 28 32  0  0  0  0  0  0  0  0999 V2000
    0.0000   -0.0000   -0.0000 S   0  0  0  0  0  0  0  0  0  0  0  0
   -0.0202    1.5555   -0.0000 C   0  0  0  0  0  0  0  0  0  0  0  0
   -1.3535   -0.7474   -0.0000 C   0  0  0  0  0  0  0  0  0  0  0  0
   -1.3131    2.3231   -0.0000 C   0  0  0  0  0  0  0  0  0  0  0  0
    1.2323    2.3433   -0.0000 C   0  0  0  0  0  0  0  0  0  0  0  0
   -2.6867    0.0404   -0.0000 C   0  0  0  0  0  0  0  0  0  0  0  0
   -1.3737   -2.2625   -0.0000 C   0  0  0  0  0  0  0  0  0  0  0  0
   -2.4039    1.7373   -0.0000 O   0  0  0  0  0  0  0  0  0  0  0  0
   -1.3333    3.8180   -0.0000 C   0  0  0  0  0  0  0  0  0  0  0  0
    1.2121    3.8382   -0.0000 C   0  0  0  0  0  0  0  0  0  0  0  0
    2.5049    1.6161   -0.0000 C   0  0  0  0  0  0  0  0  0  0  0  0
   -4.0402   -0.6868   -0.0000 C   0  0  0  0  0  0  0  0  0  0  0  0
   -2.7271   -2.9898   -0.0000 C   0  0  0  0  0  0  0  0  0  0  0  0
   -0.1010    4.5654   -0.0000 C   0  0  0  0  0  0  0  0  0  0  0  0
    2.4645    4.5856   -0.0000 C   0  0  0  0  0  0  0  0  0  0  0  0
    1.1717    5.0907   -0.0000 C   0  0  0  0  0  0  0  0  0  0  0  0
    3.7574    2.4039   -0.0000 C   0  0  0  0  0  0  0  0  0  0  0  0
   -4.0604   -2.2019   -0.0000 C   0  0  0  0  0  0  0  0  0  0  0  0
    3.7170    3.8988   -0.0000 C   0  0  0  0  0  0  0  0  0  0  0  0
    2.4241    6.1007   -0.0000 C   0  0  0  0  0  0  0  0  0  0  0  0
    4.9695    4.6462   -0.0000 C   0  0  0  0  0  0  0  0  0  0  0  0
    3.6766    6.8683   -0.0000 C   0  0  0  0  0  0  0  0  0  0  0  0
    4.9493    6.1411   -0.0000 C   0  0  0  0  0  0  0  0  0  0  0  0
    7.5148    4.6462   -0.0000 C   0  0  0  0  0  0  0  0  0  0  0  0
    6.2017    6.9290   -0.0000 C   0  0  0  0  0  0  0  0  0  0  0  0
    4.9290    7.3936   -0.0000 C   0  0  0  0  0  0  0  0  0  0  0  0
    7.4946    6.1815   -0.0000 C   0  0  0  0  0  0  0  0  0  0  0  0
    6.1815    8.1814   -0.0000 O   0  0  0  0  0  0  0  0  0  0  0  0
  1  2  1  0  0  0  0
  1  3  1  0  0  0  0
  2  4  1  0  0  0  0
  2  5  2  0  0  0  0
  3  6  2  0  0  0  0
  3  7  1  0  0  0  0
  4  8  2  0  0  0  0
  4  9  1  0  0  0  0
  5 10  1  0  0  0  0
  5 11  1  0  0  0  0
  6 12  1  0  0  0  0
  7 13  2  0  0  0  0
  9 14  2  0  0  0  0
 10 15  1  0  0  0  0
 10 16  1  1  0  0  0
 11 17  1  0  0  0  0
 12 18  2  0  0  0  0
 15 19  1  0  0  0  0
 15 20  1  1  0  0  0
 19 21  1  0  0  0  0
 20 22  1  0  0  0  0
 21 23  1  0  0  0  0
 21 24  1  1  0  0  0
 23 25  1  0  0  0  0
 23 26  1  1  0  0  0
 24 27  1  0  0  0  0
 25 28  2  0  0  0  0
 10 14  1  0  0  0  0
 13 18  1  0  0  0  0
 19 17  1  6  0  0  0
 22 23  1  0  0  0  0
 25 27  1  0  0  0  0
M  END
>  <MolRegNo>
2057825

>  <m>
=

>  <Value>
9.8

>  <Unit>
nM

>  <Type>
Ki

>  <pValue>
8.01

>  <Ligand Efficiency>
0.39

>  <Binding Efficiency>
20.4

>  <Surface Efficiency>
23.46

>  <Assay Index>
985530

>  <Assay Category>


>  <Assay Organism>
Homo sapiens

>  <Target ID>
65

>  <Target Name>
Cytochrome P450 19A1

>  <Target Organism>
Homo sapiens

>  <Target Description>
Target is a single protein chain

>  <Sequence Accession>
P11511

>  <Reference>


>  <Pubmed ID>
26469743

>  <DOI>
10.1016/j.ejmech.2015.09.038

$$$$
2057826
Actelion Java MolfileCreator 1.0

 28 32  0  0  0  0  0  0  0  0999 V2000
    0.0000   -0.0000   -0.0000 S   0  0  0  0  0  0  0  0  0  0  0  0
   -0.0202    1.5555   -0.0000 C   0  0  0  0  0  0  0  0  0  0  0  0
   -1.3535   -0.7474   -0.0000 C   0  0  0  0  0  0  0  0  0  0  0  0
    1.2323    2.3433   -0.0000 C   0  0  0  0  0  0  0  0  0  0  0  0
   -1.3131    2.3231   -0.0000 C   0  0  0  0  0  0  0  0  0  0  0  0
   -2.6867    0.0404   -0.0000 C   0  0  0  0  0  0  0  0  0  0  0  0
   -1.3737   -2.2625   -0.0000 C   0  0  0  0  0  0  0  0  0  0  0  0
    2.5049    1.6161   -0.0000 C   0  0  0  0  0  0  0  0  0  0  0  0
    1.2121    3.8382   -0.0000 C   0  0  0  0  0  0  0  0  0  0  0  0
   -2.4039    1.7373   -0.0000 O   0  0  0  0  0  0  0  0  0  0  0  0
   -1.3333    3.8180   -0.0000 C   0  0  0  0  0  0  0  0  0  0  0  0
   -4.0402   -0.6868   -0.0000 C   0  0  0  0  0  0  0  0  0  0  0  0
   -2.7271   -2.9898   -0.0000 C   0  0  0  0  0  0  0  0  0  0  0  0
    3.7574    2.4039   -0.0000 C   0  0  0  0  0  0  0  0  0  0  0  0
    2.4645    4.5856   -0.0000 C   0  0  0  0  0  0  0  0  0  0  0  0
   -0.1010    4.5654   -0.0000 C   0  0  0  0  0  0  0  0  0  0  0  0
    1.1717    5.0907   -0.0000 C   0  0  0  0  0  0  0  0  0  0  0  0
   -4.0604   -2.2019   -0.0000 C   0  0  0  0  0  0  0  0  0  0  0  0
    3.7170    3.8988   -0.0000 C   0  0  0  0  0  0  0  0  0  0  0  0
    2.4241    6.1007   -0.0000 C   0  0  0  0  0  0  0  0  0  0  0  0
    4.9695    4.6462   -0.0000 C   0  0  0  0  0  0  0  0  0  0  0  0
    3.6766    6.8683   -0.0000 C   0  0  0  0  0  0  0  0  0  0  0  0
    4.9493    6.1411   -0.0000 C   0  0  0  0  0  0  0  0  0  0  0  0
    7.5148    4.6462   -0.0000 C   0  0  0  0  0  0  0  0  0  0  0  0
    6.2017    6.9290   -0.0000 C   0  0  0  0  0  0  0  0  0  0  0  0
    4.9290    7.3936   -0.0000 C   0  0  0  0  0  0  0  0  0  0  0  0
    7.4946    6.1815   -0.0000 C   0  0  0  0  0  0  0  0  0  0  0  0
    6.1815    8.1814   -0.0000 O   0  0  0  0  0  0  0  0  0  0  0  0
  1  2  1  0  0  0  0
  1  3  1  0  0  0  0
  2  4  2  0  0  0  0
  2  5  1  0  0  0  0
  3  6  2  0  0  0  0
  3  7  1  0  0  0  0
  4  8  1  0  0  0  0
  4  9  1  0  0  0  0
  5 10  2  0  0  0  0
  5 11  1  0  0  0  0
  6 12  1  0  0  0  0
  7 13  2  0  0  0  0
  8 14  2  0  0  0  0
  9 15  1  0  0  0  0
  9 16  1  0  0  0  0
  9 17  1  6  0  0  0
 12 18  2  0  0  0  0
 19 14  1  1  0  0  0
 15 20  1  6  0  0  0
 19 21  1  0  0  0  0
 20 22  1  0  0  0  0
 21 23  1  0  0  0  0
 21 24  1  6  0  0  0
 23 25  1  0  0  0  0
 23 26  1  6  0  0  0
 24 27  1  0  0  0  0
 25 28  2  0  0  0  0
 11 16  1  0  0  0  0
 13 18  1  0  0  0  0
 15 19  1  0  0  0  0
 22 23  1  0  0  0  0
 25 27  1  0  0  0  0
M  END
>  <MolRegNo>
2057826

>  <m>
=

>  <Value>
9.8

>  <Unit>
nM

>  <Type>
Ki

>  <pValue>
8.01

>  <Ligand Efficiency>
0.39

>  <Binding Efficiency>
20.4

>  <Surface Efficiency>
23.46

>  <Assay Index>
985530

>  <Assay Category>


>  <Assay Organism>
Homo sapiens

>  <Target ID>
65

>  <Target Name>
Cytochrome P450 19A1

>  <Target Organism>
Homo sapiens

>  <Target Description>
Target is a single protein chain

>  <Sequence Accession>
P11511

>  <Reference>


>  <Pubmed ID>
26469743

>  <DOI>
10.1016/j.ejmech.2015.09.038

$$$$
2057827
Actelion Java MolfileCreator 1.0

 28 32  0  0  0  0  0  0  0  0999 V2000
    0.0000   -0.0000   -0.0000 S   0  0  0  0  0  0  0  0  0  0  0  0
   -0.0202    1.5555   -0.0000 C   0  0  0  0  0  0  0  0  0  0  0  0
   -1.3535   -0.7474   -0.0000 C   0  0  0  0  0  0  0  0  0  0  0  0
   -1.3131    2.3231   -0.0000 C   0  0  0  0  0  0  0  0  0  0  0  0
    1.2323    2.3433   -0.0000 C   0  0  0  0  0  0  0  0  0  0  0  0
   -2.6867    0.0404   -0.0000 C   0  0  0  0  0  0  0  0  0  0  0  0
   -1.3737   -2.2625   -0.0000 C   0  0  0  0  0  0  0  0  0  0  0  0
   -2.4039    1.7373   -0.0000 O   0  0  0  0  0  0  0  0  0  0  0  0
   -1.3333    3.8180   -0.0000 C   0  0  0  0  0  0  0  0  0  0  0  0
    2.5049    1.6161   -0.0000 C   0  0  0  0  0  0  0  0  0  0  0  0
    1.2121    3.8382   -0.0000 C   0  0  0  0  0  0  0  0  0  0  0  0
   -4.0402   -0.6868   -0.0000 C   0  0  0  0  0  0  0  0  0  0  0  0
   -2.7271   -2.9898   -0.0000 C   0  0  0  0  0  0  0  0  0  0  0  0
   -0.1010    4.5654   -0.0000 C   0  0  0  0  0  0  0  0  0  0  0  0
    3.7574    2.4039   -0.0000 C   0  0  0  0  0  0  0  0  0  0  0  0
    2.4645    4.5856   -0.0000 C   0  0  0  0  0  0  0  0  0  0  0  0
    1.1717    5.0907   -0.0000 C   0  0  0  0  0  0  0  0  0  0  0  0
   -4.0604   -2.2019   -0.0000 C   0  0  0  0  0  0  0  0  0  0  0  0
    3.7170    3.8988   -0.0000 C   0  0  0  0  0  0  0  0  0  0  0  0
    2.4241    6.1007   -0.0000 C   0  0  0  0  0  0  0  0  0  0  0  0
    4.9695    4.6462   -0.0000 C   0  0  0  0  0  0  0  0  0  0  0  0
    3.6766    6.8683   -0.0000 C   0  0  0  0  0  0  0  0  0  0  0  0
    4.9493    6.1411   -0.0000 C   0  0  0  0  0  0  0  0  0  0  0  0
    7.5148    4.6462   -0.0000 C   0  0  0  0  0  0  0  0  0  0  0  0
    6.2017    6.9290   -0.0000 C   0  0  0  0  0  0  0  0  0  0  0  0
    4.9290    7.3936   -0.0000 C   0  0  0  0  0  0  0  0  0  0  0  0
    7.4946    6.1815   -0.0000 C   0  0  0  0  0  0  0  0  0  0  0  0
    6.1815    8.1814   -0.0000 O   0  0  0  0  0  0  0  0  0  0  0  0
  1  2  1  0  0  0  0
  1  3  1  0  0  0  0
  2  4  1  0  0  0  0
  2  5  2  0  0  0  0
  3  6  2  0  0  0  0
  3  7  1  0  0  0  0
  4  8  2  0  0  0  0
  4  9  1  0  0  0  0
  5 10  1  0  0  0  0
  5 11  1  0  0  0  0
  6 12  1  0  0  0  0
  7 13  2  0  0  0  0
  9 14  2  0  0  0  0
 10 15  2  0  0  0  0
 11 16  1  0  0  0  0
 11 17  1  1  0  0  0
 12 18  2  0  0  0  0
 19 15  1  6  0  0  0
 16 20  1  1  0  0  0
 19 21  1  0  0  0  0
 20 22  1  0  0  0  0
 21 23  1  0  0  0  0
 21 24  1  1  0  0  0
 23 25  1  0  0  0  0
 23 26  1  1  0  0  0
 24 27  1  0  0  0  0
 25 28  2  0  0  0  0
 11 14  1  0  0  0  0
 13 18  1  0  0  0  0
 16 19  1  0  0  0  0
 22 23  1  0  0  0  0
 25 27  1  0  0  0  0
M  END
>  <MolRegNo>
2057827

>  <m>
=

>  <Value>
9.8

>  <Unit>
nM

>  <Type>
Ki

>  <pValue>
8.01

>  <Ligand Efficiency>
0.39

>  <Binding Efficiency>
20.51

>  <Surface Efficiency>
23.46

>  <Assay Index>
985530

>  <Assay Category>


>  <Assay Organism>
Homo sapiens

>  <Target ID>
65

>  <Target Name>
Cytochrome P450 19A1

>  <Target Organism>
Homo sapiens

>  <Target Description>
Target is a single protein chain

>  <Sequence Accession>
P11511

>  <Reference>


>  <Pubmed ID>
26469743

>  <DOI>
10.1016/j.ejmech.2015.09.038

$$$$
2057830
Actelion Java MolfileCreator 1.0

 22 25  0  0  0  0  0  0  0  0999 V2000
    0.0000   -0.0000   -0.0000 F   0  0  0  0  0  0  0  0  0  0  0  0
   -0.0205    1.2711   -0.0000 C   0  0  0  0  0  0  0  0  0  0  0  0
   -1.3326    2.0502   -0.0000 C   0  0  0  0  0  0  0  0  0  0  0  0
    1.2506    2.0707   -0.0000 C   0  0  0  0  0  0  0  0  0  0  0  0
   -2.4397    1.4556   -0.0000 O   0  0  0  0  0  0  0  0  0  0  0  0
   -1.3531    3.5673   -0.0000 C   0  0  0  0  0  0  0  0  0  0  0  0
    1.2301    3.5878   -0.0000 C   0  0  0  0  0  0  0  0  0  0  0  0
    2.5422    1.3326   -0.0000 C   0  0  0  0  0  0  0  0  0  0  0  0
   -0.1025    4.3258   -0.0000 C   0  0  0  0  0  0  0  0  0  0  0  0
    2.5012    4.3463   -0.0000 C   0  0  0  0  0  0  0  0  0  0  0  0
    1.1891    4.8589   -0.0000 C   0  0  0  0  0  0  0  0  0  0  0  0
    3.8133    2.1322   -0.0000 C   0  0  0  0  0  0  0  0  0  0  0  0
    3.7723    3.6493   -0.0000 C   0  0  0  0  0  0  0  0  0  0  0  0
    2.4602    5.8840   -0.0000 C   0  0  0  0  0  0  0  0  0  0  0  0
    5.0434    4.4078   -0.0000 C   0  0  0  0  0  0  0  0  0  0  0  0
    3.7313    6.6630   -0.0000 C   0  0  0  0  0  0  0  0  0  0  0  0
    5.0229    5.9250   -0.0000 C   0  0  0  0  0  0  0  0  0  0  0  0
    7.6266    4.4078   -0.0000 C   0  0  0  0  0  0  0  0  0  0  0  0
    6.2940    6.7245   -0.0000 C   0  0  0  0  0  0  0  0  0  0  0  0
    5.0024    7.1961   -0.0000 C   0  0  0  0  0  0  0  0  0  0  0  0
    7.6061    5.9660   -0.0000 C   0  0  0  0  0  0  0  0  0  0  0  0
    6.2735    7.9956   -0.0000 O   0  0  0  0  0  0  0  0  0  0  0  0
  1  2  1  0  0  0  0
  2  3  1  0  0  0  0
  2  4  2  0  0  0  0
  3  5  2  0  0  0  0
  3  6  1  0  0  0  0
  4  7  1  0  0  0  0
  4  8  1  0  0  0  0
  6  9  1  0  0  0  0
  7 10  1  0  0  0  0
  7 11  1  6  0  0  0
  8 12  1  0  0  0  0
 10 13  1  0  0  0  0
 10 14  1  6  0  0  0
 13 15  1  0  0  0  0
 14 16  1  0  0  0  0
 15 17  1  0  0  0  0
 15 18  1  6  0  0  0
 17 19  1  0  0  0  0
 17 20  1  6  0  0  0
 18 21  1  0  0  0  0
 19 22  2  0  0  0  0
  7  9  1  0  0  0  0
 13 12  1  1  0  0  0
 16 17  1  0  0  0  0
 19 21  1  0  0  0  0
M  END
>  <MolRegNo>
2057830

>  <m>
=

>  <Value>
15

>  <Unit>
nM

>  <Type>
Ki

>  <pValue>
7.82

>  <Ligand Efficiency>
0.49

>  <Binding Efficiency>
25.7

>  <Surface Efficiency>
22.92

>  <Assay Index>
985534

>  <Assay Category>


>  <Assay Organism>
Homo sapiens

>  <Target ID>
65

>  <Target Name>
Cytochrome P450 19A1

>  <Target Organism>
Homo sapiens

>  <Target Description>
Target is a single protein chain

>  <Sequence Accession>
P11511

>  <Reference>


>  <Pubmed ID>
26469743

>  <DOI>
10.1016/j.ejmech.2015.09.038

$$$$
2057831
Actelion Java MolfileCreator 1.0

 21 24  0  0  0  0  0  0  0  0999 V2000
    0.0000   -0.0000   -0.0000 F   0  0  0  0  0  0  0  0  0  0  0  0
   -0.0204    1.2631   -0.0000 C   0  0  0  0  0  0  0  0  0  0  0  0
   -1.3242    2.0372   -0.0000 C   0  0  0  0  0  0  0  0  0  0  0  0
    1.2427    2.0576   -0.0000 C   0  0  0  0  0  0  0  0  0  0  0  0
   -2.4243    1.4464   -0.0000 O   0  0  0  0  0  0  0  0  0  0  0  0
   -1.3446    3.5448   -0.0000 C   0  0  0  0  0  0  0  0  0  0  0  0
    1.2223    3.5652   -0.0000 C   0  0  0  0  0  0  0  0  0  0  0  0
    2.5262    1.3242   -0.0000 C   0  0  0  0  0  0  0  0  0  0  0  0
   -0.1019    4.2986   -0.0000 C   0  0  0  0  0  0  0  0  0  0  0  0
    2.4854    4.3190   -0.0000 C   0  0  0  0  0  0  0  0  0  0  0  0
    3.7893    2.1187   -0.0000 C   0  0  0  0  0  0  0  0  0  0  0  0
    3.7485    3.6263   -0.0000 C   0  0  0  0  0  0  0  0  0  0  0  0
    2.4447    5.8469   -0.0000 C   0  0  0  0  0  0  0  0  0  0  0  0
    5.0116    4.3801   -0.0000 C   0  0  0  0  0  0  0  0  0  0  0  0
    3.7078    6.6210   -0.0000 C   0  0  0  0  0  0  0  0  0  0  0  0
    4.9912    5.8876   -0.0000 C   0  0  0  0  0  0  0  0  0  0  0  0
    7.5785    4.3801   -0.0000 C   0  0  0  0  0  0  0  0  0  0  0  0
    6.2543    6.6822   -0.0000 C   0  0  0  0  0  0  0  0  0  0  0  0
    4.9709    7.1507   -0.0000 C   0  0  0  0  0  0  0  0  0  0  0  0
    7.5582    5.9284   -0.0000 C   0  0  0  0  0  0  0  0  0  0  0  0
    6.2340    7.9452   -0.0000 O   0  0  0  0  0  0  0  0  0  0  0  0
  1  2  1  0  0  0  0
  2  3  1  0  0  0  0
  2  4  2  0  0  0  0
  3  5  2  0  0  0  0
  3  6  1  0  0  0  0
  4  7  1  0  0  0  0
  4  8  1  0  0  0  0
  6  9  1  0  0  0  0
  7 10  1  0  0  0  0
  8 11  1  0  0  0  0
 10 12  1  0  0  0  0
 10 13  1  1  0  0  0
 12 14  1  0  0  0  0
 13 15  1  0  0  0  0
 14 16  1  0  0  0  0
 14 17  1  1  0  0  0
 16 18  1  0  0  0  0
 16 19  1  1  0  0  0
 17 20  1  0  0  0  0
 18 21  2  0  0  0  0
  7  9  1  6  0  0  0
 12 11  1  6  0  0  0
 15 16  1  0  0  0  0
 18 20  1  0  0  0  0
M  END
>  <MolRegNo>
2057831

>  <m>
=

>  <Value>
90

>  <Unit>
nM

>  <Type>
Ki

>  <pValue>
7.05

>  <Ligand Efficiency>
0.46

>  <Binding Efficiency>
24.26

>  <Surface Efficiency>
20.64

>  <Assay Index>
985534

>  <Assay Category>


>  <Assay Organism>
Homo sapiens

>  <Target ID>
65

>  <Target Name>
Cytochrome P450 19A1

>  <Target Organism>
Homo sapiens

>  <Target Description>
Target is a single protein chain

>  <Sequence Accession>
P11511

>  <Reference>


>  <Pubmed ID>
26469743

>  <DOI>
10.1016/j.ejmech.2015.09.038

$$$$
2057957
Actelion Java MolfileCreator 1.0

 22 25  0  0  0  0  0  0  0  0999 V2000
    0.0000   -0.0000   -0.0000 F   0  0  0  0  0  0  0  0  0  0  0  0
   -0.0408    1.2645   -0.0000 C   0  0  0  0  0  0  0  0  0  0  0  0
   -1.3664    2.0394   -0.0000 C   0  0  0  0  0  0  0  0  0  0  0  0
    1.2237    2.0598   -0.0000 C   0  0  0  0  0  0  0  0  0  0  0  0
   -2.6717    1.2848   -0.0000 C   0  0  0  0  0  0  0  0  0  0  0  0
   -1.3868    3.5486   -0.0000 C   0  0  0  0  0  0  0  0  0  0  0  0
    1.1829    3.5690   -0.0000 C   0  0  0  0  0  0  0  0  0  0  0  0
   -3.9769    2.0598   -0.0000 C   0  0  0  0  0  0  0  0  0  0  0  0
   -0.1224    4.3032   -0.0000 C   0  0  0  0  0  0  0  0  0  0  0  0
   -2.7125    4.2828   -0.0000 C   0  0  0  0  0  0  0  0  0  0  0  0
   -1.4276    4.8131   -0.0000 C   0  0  0  0  0  0  0  0  0  0  0  0
    2.4473    4.3236   -0.0000 C   0  0  0  0  0  0  0  0  0  0  0  0
   -5.0782    1.4684   -0.0000 O   0  0  0  0  0  0  0  0  0  0  0  0
   -3.9973    3.5690   -0.0000 C   0  0  0  0  0  0  0  0  0  0  0  0
   -0.1632    5.8328   -0.0000 C   0  0  0  0  0  0  0  0  0  0  0  0
    2.4269    5.8328   -0.0000 C   0  0  0  0  0  0  0  0  0  0  0  0
    5.0170    4.3236   -0.0000 C   0  0  0  0  0  0  0  0  0  0  0  0
    1.1013    6.6078   -0.0000 C   0  0  0  0  0  0  0  0  0  0  0  0
    3.6914    6.6282   -0.0000 C   0  0  0  0  0  0  0  0  0  0  0  0
    2.4065    7.0973   -0.0000 C   0  0  0  0  0  0  0  0  0  0  0  0
    4.9966    5.8736   -0.0000 C   0  0  0  0  0  0  0  0  0  0  0  0
    3.6710    7.8926   -0.0000 O   0  0  0  0  0  0  0  0  0  0  0  0
  2  1  1  1  0  0  0
  2  3  1  0  0  0  0
  2  4  1  0  0  0  0
  3  5  2  0  0  0  0
  3  6  1  0  0  0  0
  7  4  1  1  0  0  0
  5  8  1  0  0  0  0
  6  9  1  0  0  0  0
  6 10  1  0  0  0  0
  6 11  1  6  0  0  0
  7 12  1  0  0  0  0
  8 13  2  0  0  0  0
  8 14  1  0  0  0  0
  9 15  1  6  0  0  0
 12 16  1  0  0  0  0
 12 17  1  6  0  0  0
 15 18  1  0  0  0  0
 16 19  1  0  0  0  0
 16 20  1  6  0  0  0
 17 21  1  0  0  0  0
 19 22  2  0  0  0  0
  7  9  1  0  0  0  0
 10 14  1  0  0  0  0
 16 18  1  0  0  0  0
 19 21  1  0  0  0  0
M  END
>  <MolRegNo>
2057957

>  <m>
=

>  <Value>
55

>  <Unit>
nM

>  <Type>
Ki

>  <pValue>
7.26

>  <Ligand Efficiency>
0.45

>  <Binding Efficiency>
23.85

>  <Surface Efficiency>
21.26

>  <Assay Index>
985534

>  <Assay Category>


>  <Assay Organism>
Homo sapiens

>  <Target ID>
65

>  <Target Name>
Cytochrome P450 19A1

>  <Target Organism>
Homo sapiens

>  <Target Description>
Target is a single protein chain

>  <Sequence Accession>
P11511

>  <Reference>


>  <Pubmed ID>
26469743

>  <DOI>
10.1016/j.ejmech.2015.09.038

$$$$
2057958
Actelion Java MolfileCreator 1.0

 22 25  0  0  0  0  0  0  0  0999 V2000
    0.0000   -0.0000   -0.0000 F   0  0  0  0  0  0  0  0  0  0  0  0
   -0.0408    1.2645   -0.0000 C   0  0  0  0  0  0  0  0  0  0  0  0
   -1.3664    2.0394   -0.0000 C   0  0  0  0  0  0  0  0  0  0  0  0
    1.2237    2.0598   -0.0000 C   0  0  0  0  0  0  0  0  0  0  0  0
   -2.6717    1.2848   -0.0000 C   0  0  0  0  0  0  0  0  0  0  0  0
   -1.3868    3.5486   -0.0000 C   0  0  0  0  0  0  0  0  0  0  0  0
    1.1829    3.5690   -0.0000 C   0  0  0  0  0  0  0  0  0  0  0  0
   -3.9769    2.0598   -0.0000 C   0  0  0  0  0  0  0  0  0  0  0  0
   -0.1224    4.3032   -0.0000 C   0  0  0  0  0  0  0  0  0  0  0  0
   -2.7125    4.2828   -0.0000 C   0  0  0  0  0  0  0  0  0  0  0  0
   -1.4276    4.8131   -0.0000 C   0  0  0  0  0  0  0  0  0  0  0  0
    2.4473    4.3236   -0.0000 C   0  0  0  0  0  0  0  0  0  0  0  0
   -5.0782    1.4684   -0.0000 O   0  0  0  0  0  0  0  0  0  0  0  0
   -3.9973    3.5690   -0.0000 C   0  0  0  0  0  0  0  0  0  0  0  0
   -0.1632    5.8328   -0.0000 C   0  0  0  0  0  0  0  0  0  0  0  0
    2.4269    5.8328   -0.0000 C   0  0  0  0  0  0  0  0  0  0  0  0
    5.0170    4.3236   -0.0000 C   0  0  0  0  0  0  0  0  0  0  0  0
    1.1013    6.6078   -0.0000 C   0  0  0  0  0  0  0  0  0  0  0  0
    3.6914    6.6282   -0.0000 C   0  0  0  0  0  0  0  0  0  0  0  0
    2.4065    7.0973   -0.0000 C   0  0  0  0  0  0  0  0  0  0  0  0
    4.9966    5.8736   -0.0000 C   0  0  0  0  0  0  0  0  0  0  0  0
    3.6710    7.8926   -0.0000 O   0  0  0  0  0  0  0  0  0  0  0  0
  2  1  1  6  0  0  0
  2  3  1  0  0  0  0
  2  4  1  0  0  0  0
  3  5  2  0  0  0  0
  3  6  1  0  0  0  0
  7  4  1  1  0  0  0
  5  8  1  0  0  0  0
  6  9  1  0  0  0  0
  6 10  1  0  0  0  0
  6 11  1  6  0  0  0
  7 12  1  0  0  0  0
  8 13  2  0  0  0  0
  8 14  1  0  0  0  0
  9 15  1  6  0  0  0
 12 16  1  0  0  0  0
 12 17  1  6  0  0  0
 15 18  1  0  0  0  0
 16 19  1  0  0  0  0
 16 20  1  6  0  0  0
 17 21  1  0  0  0  0
 19 22  2  0  0  0  0
  7  9  1  0  0  0  0
 10 14  1  0  0  0  0
 16 18  1  0  0  0  0
 19 21  1  0  0  0  0
M  END
>  <MolRegNo>
2057958

>  <m>
=

>  <Value>
53

>  <Unit>
nM

>  <Type>
Ki

>  <pValue>
7.28

>  <Ligand Efficiency>
0.45

>  <Binding Efficiency>
23.9

>  <Surface Efficiency>
21.31

>  <Assay Index>
985534

>  <Assay Category>


>  <Assay Organism>
Homo sapiens

>  <Target ID>
65

>  <Target Name>
Cytochrome P450 19A1

>  <Target Organism>
Homo sapiens

>  <Target Description>
Target is a single protein chain

>  <Sequence Accession>
P11511

>  <Reference>


>  <Pubmed ID>
26469743

>  <DOI>
10.1016/j.ejmech.2015.09.038

$$$$
2057959
Actelion Java MolfileCreator 1.0

 22 25  0  0  0  0  0  0  0  0999 V2000
    0.0000   -0.0000   -0.0000 O   0  0  0  0  0  0  0  0  0  0  0  0
    1.0709    0.6384   -0.0000 C   0  0  0  0  0  0  0  0  0  0  0  0
    2.3477   -0.1030   -0.0000 C   0  0  0  0  0  0  0  0  0  0  0  0
    1.0503    2.1624   -0.0000 C   0  0  0  0  0  0  0  0  0  0  0  0
    3.6246    0.7002   -0.0000 C   0  0  0  0  0  0  0  0  0  0  0  0
    2.3065    2.9244   -0.0000 C   0  0  0  0  0  0  0  0  0  0  0  0
    3.6040    2.2242   -0.0000 C   0  0  0  0  0  0  0  0  0  0  0  0
    4.9220   -0.0412   -0.0000 C   0  0  0  0  0  0  0  0  0  0  0  0
    4.8808    2.9861   -0.0000 C   0  0  0  0  0  0  0  0  0  0  0  0
    3.5628    3.5010   -0.0000 C   0  0  0  0  0  0  0  0  0  0  0  0
    6.1988    0.7620   -0.0000 C   0  0  0  0  0  0  0  0  0  0  0  0
    4.9220   -1.2768   -0.0000 C   0  0  0  0  0  0  0  0  0  0  0  0
    6.1576    2.2859   -0.0000 C   0  0  0  0  0  0  0  0  0  0  0  0
    4.8396    4.5307   -0.0000 C   0  0  0  0  0  0  0  0  0  0  0  0
    7.4345    3.0479   -0.0000 C   0  0  0  0  0  0  0  0  0  0  0  0
    6.1164    5.3133   -0.0000 C   0  0  0  0  0  0  0  0  0  0  0  0
    7.4139    4.5719   -0.0000 C   0  0  0  0  0  0  0  0  0  0  0  0
   10.0293    3.0479   -0.0000 C   0  0  0  0  0  0  0  0  0  0  0  0
    8.6907    5.3751   -0.0000 C   0  0  0  0  0  0  0  0  0  0  0  0
    7.3933    5.8487   -0.0000 C   0  0  0  0  0  0  0  0  0  0  0  0
   10.0087    4.6131   -0.0000 C   0  0  0  0  0  0  0  0  0  0  0  0
    8.6701    6.6519   -0.0000 O   0  0  0  0  0  0  0  0  0  0  0  0
  1  2  2  0  0  0  0
  2  3  1  0  0  0  0
  2  4  1  0  0  0  0
  3  5  2  0  0  0  0
  4  6  1  0  0  0  0
  5  7  1  0  0  0  0
  5  8  1  0  0  0  0
  7  9  1  0  0  0  0
  7 10  1  6  0  0  0
  8 11  1  0  0  0  0
  8 12  1  1  0  0  0
  9 13  1  0  0  0  0
  9 14  1  6  0  0  0
 13 15  1  0  0  0  0
 14 16  1  0  0  0  0
 15 17  1  0  0  0  0
 15 18  1  6  0  0  0
 17 19  1  0  0  0  0
 17 20  1  6  0  0  0
 18 21  1  0  0  0  0
 19 22  2  0  0  0  0
  6  7  1  0  0  0  0
 13 11  1  1  0  0  0
 16 17  1  0  0  0  0
 19 21  1  0  0  0  0
M  END
>  <MolRegNo>
2057959

>  <m>
=

>  <Value>
1.4

>  <Unit>
nM

>  <Type>
Ki

>  <pValue>
8.85

>  <Ligand Efficiency>
0.55

>  <Binding Efficiency>
29.47

>  <Surface Efficiency>
25.93

>  <Assay Index>
985528

>  <Assay Category>


>  <Assay Organism>
Homo sapiens

>  <Target ID>
65

>  <Target Name>
Cytochrome P450 19A1

>  <Target Organism>
Homo sapiens

>  <Target Description>
Target is a single protein chain

>  <Sequence Accession>
P11511

>  <Reference>


>  <Pubmed ID>
26469743

>  <DOI>
10.1016/j.ejmech.2015.09.038

$$$$
2057960
Actelion Java MolfileCreator 1.0

 25 28  0  0  0  0  0  0  0  0999 V2000
    0.0000   -0.0000   -0.0000 O   0  0  0  0  0  0  0  0  0  0  0  0
    1.0667    0.6359   -0.0000 C   0  0  0  0  0  0  0  0  0  0  0  0
    2.3385   -0.1026   -0.0000 C   0  0  0  0  0  0  0  0  0  0  0  0
    1.0462    2.1539   -0.0000 C   0  0  0  0  0  0  0  0  0  0  0  0
    3.6103    0.6974   -0.0000 C   0  0  0  0  0  0  0  0  0  0  0  0
    2.2975    2.9129   -0.0000 C   0  0  0  0  0  0  0  0  0  0  0  0
    3.5898    2.2154   -0.0000 C   0  0  0  0  0  0  0  0  0  0  0  0
    4.9026   -0.0410   -0.0000 C   0  0  0  0  0  0  0  0  0  0  0  0
    4.8616    2.9744   -0.0000 C   0  0  0  0  0  0  0  0  0  0  0  0
    3.5488    3.4872   -0.0000 C   0  0  0  0  0  0  0  0  0  0  0  0
    6.1744    0.7590   -0.0000 C   0  0  0  0  0  0  0  0  0  0  0  0
    4.9026   -1.5795   -0.0000 C   0  0  0  0  0  0  0  0  0  0  0  0
    6.1334    2.2769   -0.0000 C   0  0  0  0  0  0  0  0  0  0  0  0
    4.8206    4.5129   -0.0000 C   0  0  0  0  0  0  0  0  0  0  0  0
    3.5488   -2.3385   -0.0000 C   0  0  0  0  0  0  0  0  0  0  0  0
    7.4052    3.0359   -0.0000 C   0  0  0  0  0  0  0  0  0  0  0  0
    6.0924    5.2924   -0.0000 C   0  0  0  0  0  0  0  0  0  0  0  0
    3.5488   -3.8770   -0.0000 C   0  0  0  0  0  0  0  0  0  0  0  0
    7.3847    4.5539   -0.0000 C   0  0  0  0  0  0  0  0  0  0  0  0
    9.9899    3.0359   -0.0000 C   0  0  0  0  0  0  0  0  0  0  0  0
    2.4616   -4.4924   -0.0000 C   0  0  0  0  0  0  0  0  0  0  0  0
    8.6565    5.3539   -0.0000 C   0  0  0  0  0  0  0  0  0  0  0  0
    7.3642    5.8257   -0.0000 C   0  0  0  0  0  0  0  0  0  0  0  0
    9.9693    4.5949   -0.0000 C   0  0  0  0  0  0  0  0  0  0  0  0
    8.6360    6.6257   -0.0000 O   0  0  0  0  0  0  0  0  0  0  0  0
  1  2  2  0  0  0  0
  2  3  1  0  0  0  0
  2  4  1  0  0  0  0
  3  5  2  0  0  0  0
  4  6  1  0  0  0  0
  5  7  1  0  0  0  0
  5  8  1  0  0  0  0
  7  9  1  0  0  0  0
  7 10  1  6  0  0  0
  8 11  1  0  0  0  0
  8 12  1  1  0  0  0
  9 13  1  0  0  0  0
  9 14  1  6  0  0  0
 12 15  1  0  0  0  0
 13 16  1  0  0  0  0
 14 17  1  0  0  0  0
 15 18  1  0  0  0  0
 16 19  1  0  0  0  0
 16 20  1  6  0  0  0
 18 21  1  0  0  0  0
 19 22  1  0  0  0  0
 19 23  1  6  0  0  0
 20 24  1  0  0  0  0
 22 25  2  0  0  0  0
  6  7  1  0  0  0  0
 13 11  1  1  0  0  0
 17 19  1  0  0  0  0
 22 24  1  0  0  0  0
M  END
>  <MolRegNo>
2057960

>  <m>
=

>  <Value>
1.4

>  <Unit>
nM

>  <Type>
Ki

>  <pValue>
8.85

>  <Ligand Efficiency>
0.48

>  <Binding Efficiency>
25.85

>  <Surface Efficiency>
25.93

>  <Assay Index>
985528

>  <Assay Category>


>  <Assay Organism>
Homo sapiens

>  <Target ID>
65

>  <Target Name>
Cytochrome P450 19A1

>  <Target Organism>
Homo sapiens

>  <Target Description>
Target is a single protein chain

>  <Sequence Accession>
P11511

>  <Reference>


>  <Pubmed ID>
26469743

>  <DOI>
10.1016/j.ejmech.2015.09.038

$$$$
2057961
Actelion Java MolfileCreator 1.0

 28 32  0  0  0  0  0  0  0  0999 V2000
    0.0000   -0.0000   -0.0000 O   0  0  0  0  0  0  0  0  0  0  0  0
    1.0545    0.6287   -0.0000 C   0  0  0  0  0  0  0  0  0  0  0  0
    2.3118   -0.1014   -0.0000 C   0  0  0  0  0  0  0  0  0  0  0  0
    1.0342    2.1293   -0.0000 C   0  0  0  0  0  0  0  0  0  0  0  0
    3.5691    0.6895   -0.0000 C   0  0  0  0  0  0  0  0  0  0  0  0
    2.2713    2.8796   -0.0000 C   0  0  0  0  0  0  0  0  0  0  0  0
    3.5488    2.1901   -0.0000 C   0  0  0  0  0  0  0  0  0  0  0  0
    4.8467   -0.0406   -0.0000 C   0  0  0  0  0  0  0  0  0  0  0  0
    4.8061    2.9405   -0.0000 C   0  0  0  0  0  0  0  0  0  0  0  0
    3.5083    3.4474   -0.0000 C   0  0  0  0  0  0  0  0  0  0  0  0
    6.1040    0.7503   -0.0000 C   0  0  0  0  0  0  0  0  0  0  0  0
    4.8467   -1.5615   -0.0000 C   0  0  0  0  0  0  0  0  0  0  0  0
    6.0635    2.2510   -0.0000 C   0  0  0  0  0  0  0  0  0  0  0  0
    4.7656    4.4614   -0.0000 C   0  0  0  0  0  0  0  0  0  0  0  0
    3.5083   -2.3118   -0.0000 C   0  0  0  0  0  0  0  0  0  0  0  0
    7.3208    3.0013   -0.0000 C   0  0  0  0  0  0  0  0  0  0  0  0
    6.0229    5.2320   -0.0000 C   0  0  0  0  0  0  0  0  0  0  0  0
    2.1496   -1.5412   -0.0000 C   0  0  0  0  0  0  0  0  0  0  0  0
    3.4880   -3.8328   -0.0000 C   0  0  0  0  0  0  0  0  0  0  0  0
    7.3005    4.5020   -0.0000 C   0  0  0  0  0  0  0  0  0  0  0  0
    9.8759    3.0013   -0.0000 C   0  0  0  0  0  0  0  0  0  0  0  0
    0.8112   -2.2915   -0.0000 C   0  0  0  0  0  0  0  0  0  0  0  0
    2.1496   -4.5831   -0.0000 C   0  0  0  0  0  0  0  0  0  0  0  0
    8.5578    5.2928   -0.0000 C   0  0  0  0  0  0  0  0  0  0  0  0
    7.2802    5.7593   -0.0000 C   0  0  0  0  0  0  0  0  0  0  0  0
    9.8556    4.5425   -0.0000 C   0  0  0  0  0  0  0  0  0  0  0  0
    0.7909   -3.8125   -0.0000 C   0  0  0  0  0  0  0  0  0  0  0  0
    8.5375    6.5502   -0.0000 O   0  0  0  0  0  0  0  0  0  0  0  0
  1  2  2  0  0  0  0
  2  3  1  0  0  0  0
  2  4  1  0  0  0  0
  3  5  2  0  0  0  0
  4  6  1  0  0  0  0
  5  7  1  0  0  0  0
  5  8  1  0  0  0  0
  7  9  1  0  0  0  0
  7 10  1  6  0  0  0
  8 11  1  0  0  0  0
  8 12  1  1  0  0  0
  9 13  1  0  0  0  0
  9 14  1  6  0  0  0
 12 15  1  0  0  0  0
 13 16  1  0  0  0  0
 14 17  1  0  0  0  0
 15 18  2  0  0  0  0
 15 19  1  0  0  0  0
 16 20  1  0  0  0  0
 16 21  1  6  0  0  0
 18 22  1  0  0  0  0
 19 23  2  0  0  0  0
 20 24  1  0  0  0  0
 20 25  1  6  0  0  0
 21 26  1  0  0  0  0
 22 27  2  0  0  0  0
 24 28  2  0  0  0  0
  6  7  1  0  0  0  0
 13 11  1  1  0  0  0
 17 20  1  0  0  0  0
 23 27  1  0  0  0  0
 24 26  1  0  0  0  0
M  END
>  <MolRegNo>
2057961

>  <m>
=

>  <Value>
10

>  <Unit>
nM

>  <Type>
Ki

>  <pValue>
8

>  <Ligand Efficiency>
0.39

>  <Binding Efficiency>
21.25

>  <Surface Efficiency>
23.43

>  <Assay Index>
985528

>  <Assay Category>


>  <Assay Organism>
Homo sapiens

>  <Target ID>
65

>  <Target Name>
Cytochrome P450 19A1

>  <Target Organism>
Homo sapiens

>  <Target Description>
Target is a single protein chain

>  <Sequence Accession>
P11511

>  <Reference>


>  <Pubmed ID>
26469743

>  <DOI>
10.1016/j.ejmech.2015.09.038

$$$$
2057962
Actelion Java MolfileCreator 1.0

 22 25  0  0  0  0  0  0  0  0999 V2000
    0.0000   -0.0000   -0.0000 O   0  0  0  0  0  0  0  0  0  0  0  0
    1.0709    0.6384   -0.0000 C   0  0  0  0  0  0  0  0  0  0  0  0
    2.3477   -0.1030   -0.0000 C   0  0  0  0  0  0  0  0  0  0  0  0
    1.0503    2.1624   -0.0000 C   0  0  0  0  0  0  0  0  0  0  0  0
    3.6246    0.7002   -0.0000 C   0  0  0  0  0  0  0  0  0  0  0  0
    2.3065    2.9244   -0.0000 C   0  0  0  0  0  0  0  0  0  0  0  0
    3.6040    2.2242   -0.0000 C   0  0  0  0  0  0  0  0  0  0  0  0
    4.9220   -0.0412   -0.0000 C   0  0  0  0  0  0  0  0  0  0  0  0
    4.8808    2.9861   -0.0000 C   0  0  0  0  0  0  0  0  0  0  0  0
    3.5628    3.5010   -0.0000 C   0  0  0  0  0  0  0  0  0  0  0  0
    6.1988    0.7620   -0.0000 C   0  0  0  0  0  0  0  0  0  0  0  0
    4.9220   -1.2768   -0.0000 C   0  0  0  0  0  0  0  0  0  0  0  0
    6.1576    2.2859   -0.0000 C   0  0  0  0  0  0  0  0  0  0  0  0
    4.8396    4.5307   -0.0000 C   0  0  0  0  0  0  0  0  0  0  0  0
    7.4345    3.0479   -0.0000 C   0  0  0  0  0  0  0  0  0  0  0  0
    6.1164    5.3133   -0.0000 C   0  0  0  0  0  0  0  0  0  0  0  0
    7.4139    4.5719   -0.0000 C   0  0  0  0  0  0  0  0  0  0  0  0
   10.0293    3.0479   -0.0000 C   0  0  0  0  0  0  0  0  0  0  0  0
    8.6907    5.3751   -0.0000 C   0  0  0  0  0  0  0  0  0  0  0  0
    7.3933    5.8487   -0.0000 C   0  0  0  0  0  0  0  0  0  0  0  0
   10.0087    4.6131   -0.0000 C   0  0  0  0  0  0  0  0  0  0  0  0
    8.6701    6.6519   -0.0000 O   0  0  0  0  0  0  0  0  0  0  0  0
  1  2  2  0  0  0  0
  2  3  1  0  0  0  0
  2  4  1  0  0  0  0
  3  5  2  0  0  0  0
  4  6  1  0  0  0  0
  5  7  1  0  0  0  0
  5  8  1  0  0  0  0
  7  9  1  0  0  0  0
  7 10  1  6  0  0  0
  8 11  1  0  0  0  0
  8 12  1  6  0  0  0
  9 13  1  0  0  0  0
  9 14  1  6  0  0  0
 13 15  1  0  0  0  0
 14 16  1  0  0  0  0
 15 17  1  0  0  0  0
 15 18  1  6  0  0  0
 17 19  1  0  0  0  0
 17 20  1  6  0  0  0
 18 21  1  0  0  0  0
 19 22  2  0  0  0  0
  6  7  1  0  0  0  0
 13 11  1  1  0  0  0
 16 17  1  0  0  0  0
 19 21  1  0  0  0  0
M  END
>  <MolRegNo>
2057962

>  <m>
=

>  <Value>
1.4

>  <Unit>
nM

>  <Type>
Ki

>  <pValue>
8.85

>  <Ligand Efficiency>
0.55

>  <Binding Efficiency>
29.47

>  <Surface Efficiency>
25.93

>  <Assay Index>
985528

>  <Assay Category>


>  <Assay Organism>
Homo sapiens

>  <Target ID>
65

>  <Target Name>
Cytochrome P450 19A1

>  <Target Organism>
Homo sapiens

>  <Target Description>
Target is a single protein chain

>  <Sequence Accession>
P11511

>  <Reference>


>  <Pubmed ID>
26469743

>  <DOI>
10.1016/j.ejmech.2015.09.038

$$$$
2057963
Actelion Java MolfileCreator 1.0

 23 26  0  0  0  0  0  0  0  0999 V2000
    0.0000   -0.0000   -0.0000 O   0  0  0  0  0  0  0  0  0  0  0  0
    1.0692    0.6374   -0.0000 C   0  0  0  0  0  0  0  0  0  0  0  0
    2.3439   -0.1028   -0.0000 C   0  0  0  0  0  0  0  0  0  0  0  0
    1.0486    2.1589   -0.0000 C   0  0  0  0  0  0  0  0  0  0  0  0
    3.6187    0.6991   -0.0000 C   0  0  0  0  0  0  0  0  0  0  0  0
    2.3028    2.9196   -0.0000 C   0  0  0  0  0  0  0  0  0  0  0  0
    3.5981    2.2206   -0.0000 C   0  0  0  0  0  0  0  0  0  0  0  0
    4.9140   -0.0411   -0.0000 C   0  0  0  0  0  0  0  0  0  0  0  0
    4.8729    2.9813   -0.0000 C   0  0  0  0  0  0  0  0  0  0  0  0
    3.5570    3.4953   -0.0000 C   0  0  0  0  0  0  0  0  0  0  0  0
    6.1888    0.7607   -0.0000 C   0  0  0  0  0  0  0  0  0  0  0  0
    4.9140   -1.5832   -0.0000 C   0  0  0  0  0  0  0  0  0  0  0  0
    6.1477    2.2822   -0.0000 C   0  0  0  0  0  0  0  0  0  0  0  0
    4.8318    4.5234   -0.0000 C   0  0  0  0  0  0  0  0  0  0  0  0
    3.8243   -2.2000   -0.0000 C   0  0  0  0  0  0  0  0  0  0  0  0
    7.4224    3.0430   -0.0000 C   0  0  0  0  0  0  0  0  0  0  0  0
    6.1066    5.3047   -0.0000 C   0  0  0  0  0  0  0  0  0  0  0  0
    7.4019    4.5645   -0.0000 C   0  0  0  0  0  0  0  0  0  0  0  0
   10.0131    3.0430   -0.0000 C   0  0  0  0  0  0  0  0  0  0  0  0
    8.6767    5.3664   -0.0000 C   0  0  0  0  0  0  0  0  0  0  0  0
    7.3813    5.8393   -0.0000 C   0  0  0  0  0  0  0  0  0  0  0  0
    9.9925    4.6056   -0.0000 C   0  0  0  0  0  0  0  0  0  0  0  0
    8.6561    6.6411   -0.0000 O   0  0  0  0  0  0  0  0  0  0  0  0
  1  2  2  0  0  0  0
  2  3  1  0  0  0  0
  2  4  1  0  0  0  0
  3  5  2  0  0  0  0
  4  6  1  0  0  0  0
  5  7  1  0  0  0  0
  5  8  1  0  0  0  0
  7  9  1  0  0  0  0
  7 10  1  6  0  0  0
  8 11  1  0  0  0  0
  8 12  1  6  0  0  0
  9 13  1  0  0  0  0
  9 14  1  6  0  0  0
 12 15  1  0  0  0  0
 13 16  1  0  0  0  0
 14 17  1  0  0  0  0
 16 18  1  0  0  0  0
 16 19  1  6  0  0  0
 18 20  1  0  0  0  0
 18 21  1  6  0  0  0
 19 22  1  0  0  0  0
 20 23  2  0  0  0  0
  6  7  1  0  0  0  0
 13 11  1  1  0  0  0
 17 18  1  0  0  0  0
 20 22  1  0  0  0  0
M  END
>  <MolRegNo>
2057963

>  <m>
=

>  <Value>
1.4

>  <Unit>
nM

>  <Type>
Ki

>  <pValue>
8.85

>  <Ligand Efficiency>
0.53

>  <Binding Efficiency>
28.15

>  <Surface Efficiency>
25.93

>  <Assay Index>
985528

>  <Assay Category>


>  <Assay Organism>
Homo sapiens

>  <Target ID>
65

>  <Target Name>
Cytochrome P450 19A1

>  <Target Organism>
Homo sapiens

>  <Target Description>
Target is a single protein chain

>  <Sequence Accession>
P11511

>  <Reference>


>  <Pubmed ID>
26469743

>  <DOI>
10.1016/j.ejmech.2015.09.038

$$$$
2057964
Actelion Java MolfileCreator 1.0

 25 28  0  0  0  0  0  0  0  0999 V2000
    0.0000   -0.0000   -0.0000 O   0  0  0  0  0  0  0  0  0  0  0  0
    1.0667    0.6359   -0.0000 C   0  0  0  0  0  0  0  0  0  0  0  0
    2.3385   -0.1026   -0.0000 C   0  0  0  0  0  0  0  0  0  0  0  0
    1.0462    2.1539   -0.0000 C   0  0  0  0  0  0  0  0  0  0  0  0
    3.6103    0.6974   -0.0000 C   0  0  0  0  0  0  0  0  0  0  0  0
    2.2975    2.9129   -0.0000 C   0  0  0  0  0  0  0  0  0  0  0  0
    3.5898    2.2154   -0.0000 C   0  0  0  0  0  0  0  0  0  0  0  0
    4.9026   -0.0410   -0.0000 C   0  0  0  0  0  0  0  0  0  0  0  0
    4.8616    2.9744   -0.0000 C   0  0  0  0  0  0  0  0  0  0  0  0
    3.5488    3.4872   -0.0000 C   0  0  0  0  0  0  0  0  0  0  0  0
    6.1744    0.7590   -0.0000 C   0  0  0  0  0  0  0  0  0  0  0  0
    4.9026   -1.5795   -0.0000 C   0  0  0  0  0  0  0  0  0  0  0  0
    6.1334    2.2769   -0.0000 C   0  0  0  0  0  0  0  0  0  0  0  0
    4.8206    4.5129   -0.0000 C   0  0  0  0  0  0  0  0  0  0  0  0
    3.5488   -2.3385   -0.0000 C   0  0  0  0  0  0  0  0  0  0  0  0
    7.4052    3.0359   -0.0000 C   0  0  0  0  0  0  0  0  0  0  0  0
    6.0924    5.2924   -0.0000 C   0  0  0  0  0  0  0  0  0  0  0  0
    3.5488   -3.8770   -0.0000 C   0  0  0  0  0  0  0  0  0  0  0  0
    7.3847    4.5539   -0.0000 C   0  0  0  0  0  0  0  0  0  0  0  0
    9.9899    3.0359   -0.0000 C   0  0  0  0  0  0  0  0  0  0  0  0
    2.4616   -4.4924   -0.0000 C   0  0  0  0  0  0  0  0  0  0  0  0
    8.6565    5.3539   -0.0000 C   0  0  0  0  0  0  0  0  0  0  0  0
    7.3642    5.8257   -0.0000 C   0  0  0  0  0  0  0  0  0  0  0  0
    9.9693    4.5949   -0.0000 C   0  0  0  0  0  0  0  0  0  0  0  0
    8.6360    6.6257   -0.0000 O   0  0  0  0  0  0  0  0  0  0  0  0
  1  2  2  0  0  0  0
  2  3  1  0  0  0  0
  2  4  1  0  0  0  0
  3  5  2  0  0  0  0
  4  6  1  0  0  0  0
  5  7  1  0  0  0  0
  5  8  1  0  0  0  0
  7  9  1  0  0  0  0
  7 10  1  6  0  0  0
  8 11  1  0  0  0  0
  8 12  1  6  0  0  0
  9 13  1  0  0  0  0
  9 14  1  6  0  0  0
 12 15  1  0  0  0  0
 13 16  1  0  0  0  0
 14 17  1  0  0  0  0
 15 18  1  0  0  0  0
 16 19  1  0  0  0  0
 16 20  1  6  0  0  0
 18 21  1  0  0  0  0
 19 22  1  0  0  0  0
 19 23  1  6  0  0  0
 20 24  1  0  0  0  0
 22 25  2  0  0  0  0
  6  7  1  0  0  0  0
 13 11  1  1  0  0  0
 17 19  1  0  0  0  0
 22 24  1  0  0  0  0
M  END
>  <MolRegNo>
2057964

>  <m>
=

>  <Value>
1.4

>  <Unit>
nM

>  <Type>
Ki

>  <pValue>
8.85

>  <Ligand Efficiency>
0.48

>  <Binding Efficiency>
25.85

>  <Surface Efficiency>
25.93

>  <Assay Index>
985528

>  <Assay Category>


>  <Assay Organism>
Homo sapiens

>  <Target ID>
65

>  <Target Name>
Cytochrome P450 19A1

>  <Target Organism>
Homo sapiens

>  <Target Description>
Target is a single protein chain

>  <Sequence Accession>
P11511

>  <Reference>


>  <Pubmed ID>
26469743

>  <DOI>
10.1016/j.ejmech.2015.09.038

$$$$
2057965
Actelion Java MolfileCreator 1.0

 23 26  0  0  0  0  0  0  0  0999 V2000
    0.0000   -0.0000   -0.0000 O   0  0  0  0  0  0  0  0  0  0  0  0
    1.0692    0.6374   -0.0000 C   0  0  0  0  0  0  0  0  0  0  0  0
    2.3439   -0.1028   -0.0000 C   0  0  0  0  0  0  0  0  0  0  0  0
    1.0486    2.1589   -0.0000 C   0  0  0  0  0  0  0  0  0  0  0  0
    3.6187    0.6991   -0.0000 C   0  0  0  0  0  0  0  0  0  0  0  0
    2.3028    2.9196   -0.0000 C   0  0  0  0  0  0  0  0  0  0  0  0
    3.5981    2.2206   -0.0000 C   0  0  0  0  0  0  0  0  0  0  0  0
    4.9140   -0.0411   -0.0000 C   0  0  0  0  0  0  0  0  0  0  0  0
    4.8729    2.9813   -0.0000 C   0  0  0  0  0  0  0  0  0  0  0  0
    3.5570    3.4953   -0.0000 C   0  0  0  0  0  0  0  0  0  0  0  0
    4.9140   -1.5832   -0.0000 C   0  0  0  0  0  0  0  0  0  0  0  0
    6.1888    0.7607   -0.0000 C   0  0  0  0  0  0  0  0  0  0  0  0
    6.1477    2.2822   -0.0000 C   0  0  0  0  0  0  0  0  0  0  0  0
    4.8318    4.5234   -0.0000 C   0  0  0  0  0  0  0  0  0  0  0  0
    3.8243   -2.2000   -0.0000 C   0  0  0  0  0  0  0  0  0  0  0  0
    7.4224    3.0430   -0.0000 C   0  0  0  0  0  0  0  0  0  0  0  0
    6.1066    5.3047   -0.0000 C   0  0  0  0  0  0  0  0  0  0  0  0
    7.4019    4.5645   -0.0000 C   0  0  0  0  0  0  0  0  0  0  0  0
   10.0131    3.0430   -0.0000 C   0  0  0  0  0  0  0  0  0  0  0  0
    8.6767    5.3664   -0.0000 C   0  0  0  0  0  0  0  0  0  0  0  0
    7.3813    5.8393   -0.0000 C   0  0  0  0  0  0  0  0  0  0  0  0
    9.9925    4.6056   -0.0000 C   0  0  0  0  0  0  0  0  0  0  0  0
    8.6561    6.6411   -0.0000 O   0  0  0  0  0  0  0  0  0  0  0  0
  1  2  2  0  0  0  0
  2  3  1  0  0  0  0
  2  4  1  0  0  0  0
  3  5  2  0  0  0  0
  4  6  1  0  0  0  0
  5  7  1  0  0  0  0
  5  8  1  0  0  0  0
  7  9  1  0  0  0  0
  7 10  1  6  0  0  0
  8 11  1  6  0  0  0
  8 12  1  0  0  0  0
  9 13  1  0  0  0  0
  9 14  1  6  0  0  0
 11 15  2  0  0  0  0
 13 16  1  0  0  0  0
 14 17  1  0  0  0  0
 16 18  1  0  0  0  0
 16 19  1  6  0  0  0
 18 20  1  0  0  0  0
 18 21  1  6  0  0  0
 19 22  1  0  0  0  0
 20 23  2  0  0  0  0
  6  7  1  0  0  0  0
 13 12  1  1  0  0  0
 17 18  1  0  0  0  0
 20 22  1  0  0  0  0
M  END
>  <MolRegNo>
2057965

>  <m>
=

>  <Value>
5.1

>  <Unit>
nM

>  <Type>
Ki

>  <pValue>
8.29

>  <Ligand Efficiency>
0.49

>  <Binding Efficiency>
26.54

>  <Surface Efficiency>
24.29

>  <Assay Index>
985528

>  <Assay Category>


>  <Assay Organism>
Homo sapiens

>  <Target ID>
65

>  <Target Name>
Cytochrome P450 19A1

>  <Target Organism>
Homo sapiens

>  <Target Description>
Target is a single protein chain

>  <Sequence Accession>
P11511

>  <Reference>


>  <Pubmed ID>
26469743

>  <DOI>
10.1016/j.ejmech.2015.09.038

$$$$
2057966
Actelion Java MolfileCreator 1.0

 23 26  0  0  0  0  0  0  0  0999 V2000
    0.0000   -0.0000   -0.0000 O   0  0  0  0  0  0  0  0  0  0  0  0
    1.0699    0.6378   -0.0000 C   0  0  0  0  0  0  0  0  0  0  0  0
    2.3456   -0.1029   -0.0000 C   0  0  0  0  0  0  0  0  0  0  0  0
    1.0494    2.1604   -0.0000 C   0  0  0  0  0  0  0  0  0  0  0  0
    3.6213    0.6996   -0.0000 C   0  0  0  0  0  0  0  0  0  0  0  0
    2.3045    2.9217   -0.0000 C   0  0  0  0  0  0  0  0  0  0  0  0
    4.9176   -0.0412   -0.0000 C   0  0  0  0  0  0  0  0  0  0  0  0
    3.6007    2.2222   -0.0000 C   0  0  0  0  0  0  0  0  0  0  0  0
    4.9176   -1.5843   -0.0000 C   0  0  0  0  0  0  0  0  0  0  0  0
    6.1932    0.7613   -0.0000 C   0  0  0  0  0  0  0  0  0  0  0  0
    4.8764    2.9835   -0.0000 C   0  0  0  0  0  0  0  0  0  0  0  0
    3.5596    3.4978   -0.0000 C   0  0  0  0  0  0  0  0  0  0  0  0
    5.9875   -2.1810   -0.0000 C   0  0  0  0  0  0  0  0  0  0  0  0
    6.1521    2.2839   -0.0000 C   0  0  0  0  0  0  0  0  0  0  0  0
    4.8353    4.5266   -0.0000 C   0  0  0  0  0  0  0  0  0  0  0  0
    7.4278    3.0452   -0.0000 C   0  0  0  0  0  0  0  0  0  0  0  0
    6.1109    5.3085   -0.0000 C   0  0  0  0  0  0  0  0  0  0  0  0
    7.4072    4.5678   -0.0000 C   0  0  0  0  0  0  0  0  0  0  0  0
   10.0203    3.0452   -0.0000 C   0  0  0  0  0  0  0  0  0  0  0  0
    8.6829    5.3702   -0.0000 C   0  0  0  0  0  0  0  0  0  0  0  0
    7.3866    5.8435   -0.0000 C   0  0  0  0  0  0  0  0  0  0  0  0
    9.9997    4.6089   -0.0000 C   0  0  0  0  0  0  0  0  0  0  0  0
    8.6623    6.6459   -0.0000 O   0  0  0  0  0  0  0  0  0  0  0  0
  1  2  2  0  0  0  0
  2  3  1  0  0  0  0
  2  4  1  0  0  0  0
  3  5  2  0  0  0  0
  4  6  1  0  0  0  0
  5  7  1  0  0  0  0
  5  8  1  0  0  0  0
  7  9  2  0  0  0  0
  7 10  1  0  0  0  0
  8 11  1  0  0  0  0
  8 12  1  6  0  0  0
  9 13  1  0  0  0  0
 14 10  1  1  0  0  0
 11 15  1  6  0  0  0
 14 16  1  0  0  0  0
 15 17  1  0  0  0  0
 16 18  1  0  0  0  0
 16 19  1  6  0  0  0
 18 20  1  0  0  0  0
 18 21  1  6  0  0  0
 19 22  1  0  0  0  0
 20 23  2  0  0  0  0
  6  8  1  0  0  0  0
 11 14  1  0  0  0  0
 17 18  1  0  0  0  0
 20 22  1  0  0  0  0
M  END
>  <MolRegNo>
2057966

>  <m>
=

>  <Value>
4.9

>  <Unit>
nM

>  <Type>
Ki

>  <pValue>
8.31

>  <Ligand Efficiency>
0.49

>  <Binding Efficiency>
26.6

>  <Surface Efficiency>
24.34

>  <Assay Index>
985528

>  <Assay Category>


>  <Assay Organism>
Homo sapiens

>  <Target ID>
65

>  <Target Name>
Cytochrome P450 19A1

>  <Target Organism>
Homo sapiens

>  <Target Description>
Target is a single protein chain

>  <Sequence Accession>
P11511

>  <Reference>


>  <Pubmed ID>
26469743

>  <DOI>
10.1016/j.ejmech.2015.09.038

$$$$
2057967
Actelion Java MolfileCreator 1.0

 24 27  0  0  0  0  0  0  0  0999 V2000
    0.0000   -0.0000   -0.0000 O   0  0  0  0  0  0  0  0  0  0  0  0
    1.0677    0.6365   -0.0000 C   0  0  0  0  0  0  0  0  0  0  0  0
    2.3407   -0.1027   -0.0000 C   0  0  0  0  0  0  0  0  0  0  0  0
    1.0472    2.1559   -0.0000 C   0  0  0  0  0  0  0  0  0  0  0  0
    3.6137    0.6981   -0.0000 C   0  0  0  0  0  0  0  0  0  0  0  0
    2.2996    2.9156   -0.0000 C   0  0  0  0  0  0  0  0  0  0  0  0
    3.5932    2.2175   -0.0000 C   0  0  0  0  0  0  0  0  0  0  0  0
    4.9073   -0.0411   -0.0000 C   0  0  0  0  0  0  0  0  0  0  0  0
    4.8662    2.9772   -0.0000 C   0  0  0  0  0  0  0  0  0  0  0  0
    3.5521    3.4905   -0.0000 C   0  0  0  0  0  0  0  0  0  0  0  0
    6.1803    0.7597   -0.0000 C   0  0  0  0  0  0  0  0  0  0  0  0
    4.9073   -1.5810   -0.0000 C   0  0  0  0  0  0  0  0  0  0  0  0
    6.1392    2.2791   -0.0000 C   0  0  0  0  0  0  0  0  0  0  0  0
    4.8252    4.5172   -0.0000 C   0  0  0  0  0  0  0  0  0  0  0  0
    3.5521   -2.3407   -0.0000 C   0  0  0  0  0  0  0  0  0  0  0  0
    7.4123    3.0388   -0.0000 C   0  0  0  0  0  0  0  0  0  0  0  0
    6.0982    5.2974   -0.0000 C   0  0  0  0  0  0  0  0  0  0  0  0
    2.4639   -2.9567   -0.0000 C   0  0  0  0  0  0  0  0  0  0  0  0
    7.3917    4.5582   -0.0000 C   0  0  0  0  0  0  0  0  0  0  0  0
    9.9994    3.0388   -0.0000 C   0  0  0  0  0  0  0  0  0  0  0  0
    8.6647    5.3590   -0.0000 C   0  0  0  0  0  0  0  0  0  0  0  0
    7.3712    5.8312   -0.0000 C   0  0  0  0  0  0  0  0  0  0  0  0
    9.9788    4.5993   -0.0000 C   0  0  0  0  0  0  0  0  0  0  0  0
    8.6442    6.6320   -0.0000 O   0  0  0  0  0  0  0  0  0  0  0  0
  1  2  2  0  0  0  0
  2  3  1  0  0  0  0
  2  4  1  0  0  0  0
  3  5  2  0  0  0  0
  4  6  1  0  0  0  0
  5  7  1  0  0  0  0
  5  8  1  0  0  0  0
  7  9  1  0  0  0  0
  7 10  1  6  0  0  0
  8 11  1  0  0  0  0
  8 12  1  1  0  0  0
  9 13  1  0  0  0  0
  9 14  1  6  0  0  0
 12 15  1  0  0  0  0
 13 16  1  0  0  0  0
 14 17  1  0  0  0  0
 15 18  3  0  0  0  0
 16 19  1  0  0  0  0
 16 20  1  6  0  0  0
 19 21  1  0  0  0  0
 19 22  1  6  0  0  0
 20 23  1  0  0  0  0
 21 24  2  0  0  0  0
  6  7  1  0  0  0  0
 13 11  1  1  0  0  0
 17 19  1  0  0  0  0
 21 23  1  0  0  0  0
M  END
>  <MolRegNo>
2057967

>  <m>
=

>  <Value>
37

>  <Unit>
nM

>  <Type>
Ki

>  <pValue>
7.43

>  <Ligand Efficiency>
0.42

>  <Binding Efficiency>
22.91

>  <Surface Efficiency>
21.77

>  <Assay Index>
985528

>  <Assay Category>


>  <Assay Organism>
Homo sapiens

>  <Target ID>
65

>  <Target Name>
Cytochrome P450 19A1

>  <Target Organism>
Homo sapiens

>  <Target Description>
Target is a single protein chain

>  <Sequence Accession>
P11511

>  <Reference>


>  <Pubmed ID>
26469743

>  <DOI>
10.1016/j.ejmech.2015.09.038

$$$$
2057968
Actelion Java MolfileCreator 1.0

 24 27  0  0  0  0  0  0  0  0999 V2000
    0.0000   -0.0000   -0.0000 O   0  0  0  0  0  0  0  0  0  0  0  0
    1.0677    0.6365   -0.0000 C   0  0  0  0  0  0  0  0  0  0  0  0
    2.3407   -0.1027   -0.0000 C   0  0  0  0  0  0  0  0  0  0  0  0
    1.0472    2.1559   -0.0000 C   0  0  0  0  0  0  0  0  0  0  0  0
    3.6137    0.6981   -0.0000 C   0  0  0  0  0  0  0  0  0  0  0  0
    2.2996    2.9156   -0.0000 C   0  0  0  0  0  0  0  0  0  0  0  0
    3.5932    2.2175   -0.0000 C   0  0  0  0  0  0  0  0  0  0  0  0
    4.9073   -0.0411   -0.0000 C   0  0  0  0  0  0  0  0  0  0  0  0
    4.8662    2.9772   -0.0000 C   0  0  0  0  0  0  0  0  0  0  0  0
    3.5521    3.4905   -0.0000 C   0  0  0  0  0  0  0  0  0  0  0  0
    6.1803    0.7597   -0.0000 C   0  0  0  0  0  0  0  0  0  0  0  0
    4.9073   -1.5810   -0.0000 C   0  0  0  0  0  0  0  0  0  0  0  0
    6.1392    2.2791   -0.0000 C   0  0  0  0  0  0  0  0  0  0  0  0
    4.8252    4.5172   -0.0000 C   0  0  0  0  0  0  0  0  0  0  0  0
    3.5521   -2.3407   -0.0000 C   0  0  0  0  0  0  0  0  0  0  0  0
    7.4123    3.0388   -0.0000 C   0  0  0  0  0  0  0  0  0  0  0  0
    6.0982    5.2974   -0.0000 C   0  0  0  0  0  0  0  0  0  0  0  0
    2.4639   -2.9567   -0.0000 C   0  0  0  0  0  0  0  0  0  0  0  0
    7.3917    4.5582   -0.0000 C   0  0  0  0  0  0  0  0  0  0  0  0
    9.9994    3.0388   -0.0000 C   0  0  0  0  0  0  0  0  0  0  0  0
    8.6647    5.3590   -0.0000 C   0  0  0  0  0  0  0  0  0  0  0  0
    7.3712    5.8312   -0.0000 C   0  0  0  0  0  0  0  0  0  0  0  0
    9.9788    4.5993   -0.0000 C   0  0  0  0  0  0  0  0  0  0  0  0
    8.6442    6.6320   -0.0000 O   0  0  0  0  0  0  0  0  0  0  0  0
  1  2  2  0  0  0  0
  2  3  1  0  0  0  0
  2  4  1  0  0  0  0
  3  5  2  0  0  0  0
  4  6  1  0  0  0  0
  5  7  1  0  0  0  0
  5  8  1  0  0  0  0
  7  9  1  0  0  0  0
  7 10  1  6  0  0  0
  8 11  1  0  0  0  0
  8 12  1  6  0  0  0
  9 13  1  0  0  0  0
  9 14  1  6  0  0  0
 12 15  1  0  0  0  0
 13 16  1  0  0  0  0
 14 17  1  0  0  0  0
 15 18  3  0  0  0  0
 16 19  1  0  0  0  0
 16 20  1  6  0  0  0
 19 21  1  0  0  0  0
 19 22  1  6  0  0  0
 20 23  1  0  0  0  0
 21 24  2  0  0  0  0
  6  7  1  0  0  0  0
 13 11  1  1  0  0  0
 17 19  1  0  0  0  0
 21 23  1  0  0  0  0
M  END
>  <MolRegNo>
2057968

>  <m>
=

>  <Value>
10

>  <Unit>
nM

>  <Type>
Ki

>  <pValue>
8

>  <Ligand Efficiency>
0.46

>  <Binding Efficiency>
24.66

>  <Surface Efficiency>
23.43

>  <Assay Index>
985528

>  <Assay Category>


>  <Assay Organism>
Homo sapiens

>  <Target ID>
65

>  <Target Name>
Cytochrome P450 19A1

>  <Target Organism>
Homo sapiens

>  <Target Description>
Target is a single protein chain

>  <Sequence Accession>
P11511

>  <Reference>


>  <Pubmed ID>
26469743

>  <DOI>
10.1016/j.ejmech.2015.09.038

$$$$
2058080
Actelion Java MolfileCreator 1.0

 23 27  0  0  0  0  0  0  0  0999 V2000
    0.0000   -0.0000   -0.0000 O   0  0  0  0  0  0  0  0  0  0  0  0
    1.0607    0.6323   -0.0000 C   0  0  0  0  0  0  0  0  0  0  0  0
    2.3254   -0.1020   -0.0000 C   0  0  0  0  0  0  0  0  0  0  0  0
    1.0403    2.1418   -0.0000 C   0  0  0  0  0  0  0  0  0  0  0  0
    3.5901    0.6935   -0.0000 C   0  0  0  0  0  0  0  0  0  0  0  0
    2.2846    2.8965   -0.0000 C   0  0  0  0  0  0  0  0  0  0  0  0
    3.5697    2.2030   -0.0000 C   0  0  0  0  0  0  0  0  0  0  0  0
    4.8751   -0.0408   -0.0000 C   0  0  0  0  0  0  0  0  0  0  0  0
    4.8343    2.9577   -0.0000 C   0  0  0  0  0  0  0  0  0  0  0  0
    4.8955    1.4687   -0.0000 C   0  0  0  0  0  0  0  0  0  0  0  0
    6.1398    0.7547   -0.0000 C   0  0  0  0  0  0  0  0  0  0  0  0
    6.0990    2.2642   -0.0000 C   0  0  0  0  0  0  0  0  0  0  0  0
    4.7935    4.4876   -0.0000 C   0  0  0  0  0  0  0  0  0  0  0  0
    5.6503    0.3060   -0.0000 O   0  0  0  0  0  0  0  0  0  0  0  0
    4.1204    0.2856   -0.0000 C   0  0  0  0  0  0  0  0  0  0  0  0
    7.3637    3.0189   -0.0000 C   0  0  0  0  0  0  0  0  0  0  0  0
    6.0582    5.2627   -0.0000 C   0  0  0  0  0  0  0  0  0  0  0  0
    7.3433    4.5284   -0.0000 C   0  0  0  0  0  0  0  0  0  0  0  0
    9.9338    3.0189   -0.0000 C   0  0  0  0  0  0  0  0  0  0  0  0
    8.6080    5.3239   -0.0000 C   0  0  0  0  0  0  0  0  0  0  0  0
    7.3229    5.7930   -0.0000 C   0  0  0  0  0  0  0  0  0  0  0  0
    9.9134    4.5692   -0.0000 C   0  0  0  0  0  0  0  0  0  0  0  0
    8.5876    6.5886   -0.0000 O   0  0  0  0  0  0  0  0  0  0  0  0
  1  2  2  0  0  0  0
  2  3  1  0  0  0  0
  2  4  1  0  0  0  0
  3  5  2  0  0  0  0
  4  6  1  0  0  0  0
  5  7  1  0  0  0  0
  5  8  1  0  0  0  0
  7  9  1  0  0  0  0
  7 10  1  1  0  0  0
  8 11  1  0  0  0  0
  9 12  1  0  0  0  0
  9 13  1  1  0  0  0
 10 14  1  1  0  0  0
 10 15  1  0  0  0  0
 12 16  1  0  0  0  0
 13 17  1  0  0  0  0
 16 18  1  0  0  0  0
 16 19  1  1  0  0  0
 18 20  1  0  0  0  0
 18 21  1  1  0  0  0
 19 22  1  0  0  0  0
 20 23  2  0  0  0  0
  6  7  1  0  0  0  0
 12 11  1  6  0  0  0
 14 15  1  0  0  0  0
 17 18  1  0  0  0  0
 20 22  1  0  0  0  0
M  END
>  <MolRegNo>
2058080

>  <m>
=

>  <Value>
1

>  <Unit>
nM

>  <Type>
Ki

>  <pValue>
9

>  <Ligand Efficiency>
0.53

>  <Binding Efficiency>
28.62

>  <Surface Efficiency>
19.28

>  <Assay Index>
985537

>  <Assay Category>


>  <Assay Organism>
Homo sapiens

>  <Target ID>
65

>  <Target Name>
Cytochrome P450 19A1

>  <Target Organism>
Homo sapiens

>  <Target Description>
Target is a single protein chain

>  <Sequence Accession>
P11511

>  <Reference>


>  <Pubmed ID>
26469743

>  <DOI>
10.1016/j.ejmech.2015.09.038

$$$$
2058081
Actelion Java MolfileCreator 1.0

 23 27  0  0  0  0  0  0  0  0999 V2000
    0.0000   -0.0000   -0.0000 O   0  0  0  0  0  0  0  0  0  0  0  0
    1.0607    0.6323   -0.0000 C   0  0  0  0  0  0  0  0  0  0  0  0
    2.3254   -0.1020   -0.0000 C   0  0  0  0  0  0  0  0  0  0  0  0
    1.0403    2.1418   -0.0000 C   0  0  0  0  0  0  0  0  0  0  0  0
    3.5901    0.6935   -0.0000 C   0  0  0  0  0  0  0  0  0  0  0  0
    2.2846    2.8965   -0.0000 C   0  0  0  0  0  0  0  0  0  0  0  0
    3.5697    2.2030   -0.0000 C   0  0  0  0  0  0  0  0  0  0  0  0
    4.8751   -0.0408   -0.0000 C   0  0  0  0  0  0  0  0  0  0  0  0
    4.8343    2.9577   -0.0000 C   0  0  0  0  0  0  0  0  0  0  0  0
    4.8955    1.4687   -0.0000 C   0  0  0  0  0  0  0  0  0  0  0  0
    6.1398    0.7547   -0.0000 C   0  0  0  0  0  0  0  0  0  0  0  0
    6.0990    2.2642   -0.0000 C   0  0  0  0  0  0  0  0  0  0  0  0
    4.7935    4.4876   -0.0000 C   0  0  0  0  0  0  0  0  0  0  0  0
    5.6503    0.3060   -0.0000 O   0  0  0  0  0  0  0  0  0  0  0  0
    4.1204    0.2856   -0.0000 C   0  0  0  0  0  0  0  0  0  0  0  0
    7.3637    3.0189   -0.0000 C   0  0  0  0  0  0  0  0  0  0  0  0
    6.0582    5.2627   -0.0000 C   0  0  0  0  0  0  0  0  0  0  0  0
    7.3433    4.5284   -0.0000 C   0  0  0  0  0  0  0  0  0  0  0  0
    9.9338    3.0189   -0.0000 C   0  0  0  0  0  0  0  0  0  0  0  0
    8.6080    5.3239   -0.0000 C   0  0  0  0  0  0  0  0  0  0  0  0
    7.3229    5.7930   -0.0000 C   0  0  0  0  0  0  0  0  0  0  0  0
    9.9134    4.5692   -0.0000 C   0  0  0  0  0  0  0  0  0  0  0  0
    8.5876    6.5886   -0.0000 O   0  0  0  0  0  0  0  0  0  0  0  0
  1  2  2  0  0  0  0
  2  3  1  0  0  0  0
  2  4  1  0  0  0  0
  3  5  2  0  0  0  0
  4  6  1  0  0  0  0
  5  7  1  0  0  0  0
  5  8  1  0  0  0  0
  7  9  1  0  0  0  0
  7 10  1  1  0  0  0
  8 11  1  0  0  0  0
  9 12  1  0  0  0  0
  9 13  1  1  0  0  0
 10 14  1  6  0  0  0
 10 15  1  0  0  0  0
 12 16  1  0  0  0  0
 13 17  1  0  0  0  0
 16 18  1  0  0  0  0
 16 19  1  1  0  0  0
 18 20  1  0  0  0  0
 18 21  1  1  0  0  0
 19 22  1  0  0  0  0
 20 23  2  0  0  0  0
  6  7  1  0  0  0  0
 12 11  1  6  0  0  0
 14 15  1  0  0  0  0
 17 18  1  0  0  0  0
 20 22  1  0  0  0  0
M  END
>  <MolRegNo>
2058081

>  <m>
=

>  <Value>
75

>  <Unit>
nM

>  <Type>
Ki

>  <pValue>
7.12

>  <Ligand Efficiency>
0.42

>  <Binding Efficiency>
22.66

>  <Surface Efficiency>
15.27

>  <Assay Index>
985537

>  <Assay Category>


>  <Assay Organism>
Homo sapiens

>  <Target ID>
65

>  <Target Name>
Cytochrome P450 19A1

>  <Target Organism>
Homo sapiens

>  <Target Description>
Target is a single protein chain

>  <Sequence Accession>
P11511

>  <Reference>


>  <Pubmed ID>
26469743

>  <DOI>
10.1016/j.ejmech.2015.09.038

$$$$
2058084
Actelion Java MolfileCreator 1.0

 23 27  0  0  0  0  0  0  0  0999 V2000
    0.0000   -0.0000   -0.0000 O   0  0  0  0  0  0  0  0  0  0  0  0
    1.0607    0.6323   -0.0000 C   0  0  0  0  0  0  0  0  0  0  0  0
    2.3254   -0.1020   -0.0000 C   0  0  0  0  0  0  0  0  0  0  0  0
    1.0403    2.1418   -0.0000 C   0  0  0  0  0  0  0  0  0  0  0  0
    3.5901    0.6935   -0.0000 C   0  0  0  0  0  0  0  0  0  0  0  0
    2.2846    2.8965   -0.0000 C   0  0  0  0  0  0  0  0  0  0  0  0
    3.5697    2.2030   -0.0000 C   0  0  0  0  0  0  0  0  0  0  0  0
    4.8751   -0.0408   -0.0000 C   0  0  0  0  0  0  0  0  0  0  0  0
    4.8343    2.9577   -0.0000 C   0  0  0  0  0  0  0  0  0  0  0  0
    4.8955    1.4687   -0.0000 C   0  0  0  0  0  0  0  0  0  0  0  0
    6.1398    0.7547   -0.0000 C   0  0  0  0  0  0  0  0  0  0  0  0
    6.0990    2.2642   -0.0000 C   0  0  0  0  0  0  0  0  0  0  0  0
    4.7935    4.4876   -0.0000 C   0  0  0  0  0  0  0  0  0  0  0  0
    5.6503    0.3060   -0.0000 N   0  0  0  0  0  0  0  0  0  0  0  0
    4.1204    0.2856   -0.0000 C   0  0  0  0  0  0  0  0  0  0  0  0
    7.3637    3.0189   -0.0000 C   0  0  0  0  0  0  0  0  0  0  0  0
    6.0582    5.2627   -0.0000 C   0  0  0  0  0  0  0  0  0  0  0  0
    7.3433    4.5284   -0.0000 C   0  0  0  0  0  0  0  0  0  0  0  0
    9.9338    3.0189   -0.0000 C   0  0  0  0  0  0  0  0  0  0  0  0
    8.6080    5.3239   -0.0000 C   0  0  0  0  0  0  0  0  0  0  0  0
    7.3229    5.7930   -0.0000 C   0  0  0  0  0  0  0  0  0  0  0  0
    9.9134    4.5692   -0.0000 C   0  0  0  0  0  0  0  0  0  0  0  0
    8.5876    6.5886   -0.0000 O   0  0  0  0  0  0  0  0  0  0  0  0
  1  2  2  0  0  0  0
  2  3  1  0  0  0  0
  2  4  1  0  0  0  0
  3  5  2  0  0  0  0
  4  6  1  0  0  0  0
  5  7  1  0  0  0  0
  5  8  1  0  0  0  0
  7  9  1  0  0  0  0
  7 10  1  1  0  0  0
  8 11  1  0  0  0  0
  9 12  1  0  0  0  0
  9 13  1  1  0  0  0
 10 14  1  1  0  0  0
 10 15  1  0  0  0  0
 12 16  1  0  0  0  0
 13 17  1  0  0  0  0
 16 18  1  0  0  0  0
 16 19  1  1  0  0  0
 18 20  1  0  0  0  0
 18 21  1  1  0  0  0
 19 22  1  0  0  0  0
 20 23  2  0  0  0  0
  6  7  1  0  0  0  0
 12 11  1  6  0  0  0
 14 15  1  0  0  0  0
 17 18  1  0  0  0  0
 20 22  1  0  0  0  0
M  END
>  <MolRegNo>
2058084

>  <m>
=

>  <Value>
3.4

>  <Unit>
nM

>  <Type>
Ki

>  <pValue>
8.47

>  <Ligand Efficiency>
0.5

>  <Binding Efficiency>
27.02

>  <Surface Efficiency>
15.1

>  <Assay Index>
985537

>  <Assay Category>


>  <Assay Organism>
Homo sapiens

>  <Target ID>
65

>  <Target Name>
Cytochrome P450 19A1

>  <Target Organism>
Homo sapiens

>  <Target Description>
Target is a single protein chain

>  <Sequence Accession>
P11511

>  <Reference>


>  <Pubmed ID>
26469743

>  <DOI>
10.1016/j.ejmech.2015.09.038

$$$$
2058085
Actelion Java MolfileCreator 1.0

 23 27  0  0  0  0  0  0  0  0999 V2000
    0.0000   -0.0000   -0.0000 O   0  0  0  0  0  0  0  0  0  0  0  0
    1.0607    0.6323   -0.0000 C   0  0  0  0  0  0  0  0  0  0  0  0
    2.3254   -0.1020   -0.0000 C   0  0  0  0  0  0  0  0  0  0  0  0
    1.0403    2.1418   -0.0000 C   0  0  0  0  0  0  0  0  0  0  0  0
    3.5901    0.6935   -0.0000 C   0  0  0  0  0  0  0  0  0  0  0  0
    2.2846    2.8965   -0.0000 C   0  0  0  0  0  0  0  0  0  0  0  0
    3.5697    2.2030   -0.0000 C   0  0  0  0  0  0  0  0  0  0  0  0
    4.8751   -0.0408   -0.0000 C   0  0  0  0  0  0  0  0  0  0  0  0
    4.8343    2.9577   -0.0000 C   0  0  0  0  0  0  0  0  0  0  0  0
    4.8955    1.4687   -0.0000 C   0  0  0  0  0  0  0  0  0  0  0  0
    6.1398    0.7547   -0.0000 C   0  0  0  0  0  0  0  0  0  0  0  0
    6.0990    2.2642   -0.0000 C   0  0  0  0  0  0  0  0  0  0  0  0
    4.7935    4.4876   -0.0000 C   0  0  0  0  0  0  0  0  0  0  0  0
    5.6503    0.3060   -0.0000 N   0  0  0  0  0  0  0  0  0  0  0  0
    4.1204    0.2856   -0.0000 C   0  0  0  0  0  0  0  0  0  0  0  0
    7.3637    3.0189   -0.0000 C   0  0  0  0  0  0  0  0  0  0  0  0
    6.0582    5.2627   -0.0000 C   0  0  0  0  0  0  0  0  0  0  0  0
    7.3433    4.5284   -0.0000 C   0  0  0  0  0  0  0  0  0  0  0  0
    9.9338    3.0189   -0.0000 C   0  0  0  0  0  0  0  0  0  0  0  0
    8.6080    5.3239   -0.0000 C   0  0  0  0  0  0  0  0  0  0  0  0
    7.3229    5.7930   -0.0000 C   0  0  0  0  0  0  0  0  0  0  0  0
    9.9134    4.5692   -0.0000 C   0  0  0  0  0  0  0  0  0  0  0  0
    8.5876    6.5886   -0.0000 O   0  0  0  0  0  0  0  0  0  0  0  0
  1  2  2  0  0  0  0
  2  3  1  0  0  0  0
  2  4  1  0  0  0  0
  3  5  2  0  0  0  0
  4  6  1  0  0  0  0
  5  7  1  0  0  0  0
  5  8  1  0  0  0  0
  7  9  1  0  0  0  0
  7 10  1  1  0  0  0
  8 11  1  0  0  0  0
  9 12  1  0  0  0  0
  9 13  1  1  0  0  0
 10 14  1  6  0  0  0
 10 15  1  0  0  0  0
 12 16  1  0  0  0  0
 13 17  1  0  0  0  0
 16 18  1  0  0  0  0
 16 19  1  1  0  0  0
 18 20  1  0  0  0  0
 18 21  1  1  0  0  0
 19 22  1  0  0  0  0
 20 23  2  0  0  0  0
  6  7  1  0  0  0  0
 12 11  1  6  0  0  0
 14 15  1  0  0  0  0
 17 18  1  0  0  0  0
 20 22  1  0  0  0  0
M  END
>  <MolRegNo>
2058085

>  <m>
=

>  <Value>
3.4

>  <Unit>
nM

>  <Type>
Ki

>  <pValue>
8.47

>  <Ligand Efficiency>
0.5

>  <Binding Efficiency>
27.02

>  <Surface Efficiency>
15.1

>  <Assay Index>
985537

>  <Assay Category>


>  <Assay Organism>
Homo sapiens

>  <Target ID>
65

>  <Target Name>
Cytochrome P450 19A1

>  <Target Organism>
Homo sapiens

>  <Target Description>
Target is a single protein chain

>  <Sequence Accession>
P11511

>  <Reference>


>  <Pubmed ID>
26469743

>  <DOI>
10.1016/j.ejmech.2015.09.038

$$$$
2058086
Actelion Java MolfileCreator 1.0

 23 27  0  0  0  0  0  0  0  0999 V2000
    0.0000   -0.0000   -0.0000 O   0  0  0  0  0  0  0  0  0  0  0  0
    1.0607    0.6323   -0.0000 C   0  0  0  0  0  0  0  0  0  0  0  0
    2.3254   -0.1020   -0.0000 C   0  0  0  0  0  0  0  0  0  0  0  0
    1.0403    2.1418   -0.0000 C   0  0  0  0  0  0  0  0  0  0  0  0
    3.5901    0.6935   -0.0000 C   0  0  0  0  0  0  0  0  0  0  0  0
    2.2846    2.8965   -0.0000 C   0  0  0  0  0  0  0  0  0  0  0  0
    3.5697    2.2030   -0.0000 C   0  0  0  0  0  0  0  0  0  0  0  0
    4.8751   -0.0408   -0.0000 C   0  0  0  0  0  0  0  0  0  0  0  0
    4.8343    2.9577   -0.0000 C   0  0  0  0  0  0  0  0  0  0  0  0
    4.8955    1.4687   -0.0000 C   0  0  0  0  0  0  0  0  0  0  0  0
    6.1398    0.7547   -0.0000 C   0  0  0  0  0  0  0  0  0  0  0  0
    6.0990    2.2642   -0.0000 C   0  0  0  0  0  0  0  0  0  0  0  0
    4.7935    4.4876   -0.0000 C   0  0  0  0  0  0  0  0  0  0  0  0
    5.6503    0.3060   -0.0000 N   0  0  0  0  0  0  0  0  0  0  0  0
    4.1204    0.2856   -0.0000 C   0  0  0  0  0  0  0  0  0  0  0  0
    7.3637    3.0189   -0.0000 C   0  0  0  0  0  0  0  0  0  0  0  0
    6.0582    5.2627   -0.0000 C   0  0  0  0  0  0  0  0  0  0  0  0
    7.3433    4.5284   -0.0000 C   0  0  0  0  0  0  0  0  0  0  0  0
    9.9338    3.0189   -0.0000 C   0  0  0  0  0  0  0  0  0  0  0  0
    8.6080    5.3239   -0.0000 C   0  0  0  0  0  0  0  0  0  0  0  0
    7.3229    5.7930   -0.0000 C   0  0  0  0  0  0  0  0  0  0  0  0
    9.9134    4.5692   -0.0000 C   0  0  0  0  0  0  0  0  0  0  0  0
    8.5876    6.5886   -0.0000 O   0  0  0  0  0  0  0  0  0  0  0  0
  1  2  2  0  0  0  0
  2  3  1  0  0  0  0
  2  4  1  0  0  0  0
  3  5  2  0  0  0  0
  4  6  1  0  0  0  0
  5  7  1  0  0  0  0
  5  8  1  0  0  0  0
  7  9  1  0  0  0  0
  7 10  1  1  0  0  0
  8 11  1  0  0  0  0
  9 12  1  0  0  0  0
  9 13  1  1  0  0  0
 10 14  1  1  0  0  0
 10 15  1  0  0  0  0
 12 16  1  0  0  0  0
 13 17  1  0  0  0  0
 16 18  1  0  0  0  0
 16 19  1  1  0  0  0
 18 20  1  0  0  0  0
 18 21  1  1  0  0  0
 19 22  1  0  0  0  0
 20 23  1  1  0  0  0
  6  7  1  0  0  0  0
 12 11  1  6  0  0  0
 14 15  1  0  0  0  0
 17 18  1  0  0  0  0
 20 22  1  0  0  0  0
M  END
>  <MolRegNo>
2058086

>  <m>
=

>  <Value>
3.4

>  <Unit>
nM

>  <Type>
Ki

>  <pValue>
8.47

>  <Ligand Efficiency>
0.5

>  <Binding Efficiency>
26.84

>  <Surface Efficiency>
14.3

>  <Assay Index>
985537

>  <Assay Category>


>  <Assay Organism>
Homo sapiens

>  <Target ID>
65

>  <Target Name>
Cytochrome P450 19A1

>  <Target Organism>
Homo sapiens

>  <Target Description>
Target is a single protein chain

>  <Sequence Accession>
P11511

>  <Reference>


>  <Pubmed ID>
26469743

>  <DOI>
10.1016/j.ejmech.2015.09.038

$$$$
2058087
Actelion Java MolfileCreator 1.0

 23 27  0  0  0  0  0  0  0  0999 V2000
    0.0000   -0.0000   -0.0000 O   0  0  0  0  0  0  0  0  0  0  0  0
    1.0607    0.6323   -0.0000 C   0  0  0  0  0  0  0  0  0  0  0  0
    2.3254   -0.1020   -0.0000 C   0  0  0  0  0  0  0  0  0  0  0  0
    1.0403    2.1418   -0.0000 C   0  0  0  0  0  0  0  0  0  0  0  0
    3.5901    0.6935   -0.0000 C   0  0  0  0  0  0  0  0  0  0  0  0
    2.2846    2.8965   -0.0000 C   0  0  0  0  0  0  0  0  0  0  0  0
    3.5697    2.2030   -0.0000 C   0  0  0  0  0  0  0  0  0  0  0  0
    4.8751   -0.0408   -0.0000 C   0  0  0  0  0  0  0  0  0  0  0  0
    4.8343    2.9577   -0.0000 C   0  0  0  0  0  0  0  0  0  0  0  0
    4.8955    1.4687   -0.0000 C   0  0  0  0  0  0  0  0  0  0  0  0
    6.1398    0.7547   -0.0000 C   0  0  0  0  0  0  0  0  0  0  0  0
    6.0990    2.2642   -0.0000 C   0  0  0  0  0  0  0  0  0  0  0  0
    4.7935    4.4876   -0.0000 C   0  0  0  0  0  0  0  0  0  0  0  0
    5.6503    0.3060   -0.0000 N   0  0  0  0  0  0  0  0  0  0  0  0
    4.1204    0.2856   -0.0000 C   0  0  0  0  0  0  0  0  0  0  0  0
    7.3637    3.0189   -0.0000 C   0  0  0  0  0  0  0  0  0  0  0  0
    6.0582    5.2627   -0.0000 C   0  0  0  0  0  0  0  0  0  0  0  0
    7.3433    4.5284   -0.0000 C   0  0  0  0  0  0  0  0  0  0  0  0
    9.9338    3.0189   -0.0000 C   0  0  0  0  0  0  0  0  0  0  0  0
    8.6080    5.3239   -0.0000 C   0  0  0  0  0  0  0  0  0  0  0  0
    7.3229    5.7930   -0.0000 C   0  0  0  0  0  0  0  0  0  0  0  0
    9.9134    4.5692   -0.0000 C   0  0  0  0  0  0  0  0  0  0  0  0
    8.5876    6.5886   -0.0000 O   0  0  0  0  0  0  0  0  0  0  0  0
  1  2  2  0  0  0  0
  2  3  1  0  0  0  0
  2  4  1  0  0  0  0
  3  5  2  0  0  0  0
  4  6  1  0  0  0  0
  5  7  1  0  0  0  0
  5  8  1  0  0  0  0
  7  9  1  0  0  0  0
  7 10  1  1  0  0  0
  8 11  1  0  0  0  0
  9 12  1  0  0  0  0
  9 13  1  1  0  0  0
 10 14  1  6  0  0  0
 10 15  1  0  0  0  0
 12 16  1  0  0  0  0
 13 17  1  0  0  0  0
 16 18  1  0  0  0  0
 16 19  1  1  0  0  0
 18 20  1  0  0  0  0
 18 21  1  1  0  0  0
 19 22  1  0  0  0  0
 20 23  1  1  0  0  0
  6  7  1  0  0  0  0
 12 11  1  6  0  0  0
 14 15  1  0  0  0  0
 17 18  1  0  0  0  0
 20 22  1  0  0  0  0
M  END
>  <MolRegNo>
2058087

>  <m>
=

>  <Value>
3.4

>  <Unit>
nM

>  <Type>
Ki

>  <pValue>
8.47

>  <Ligand Efficiency>
0.5

>  <Binding Efficiency>
26.84

>  <Surface Efficiency>
14.3

>  <Assay Index>
985537

>  <Assay Category>


>  <Assay Organism>
Homo sapiens

>  <Target ID>
65

>  <Target Name>
Cytochrome P450 19A1

>  <Target Organism>
Homo sapiens

>  <Target Description>
Target is a single protein chain

>  <Sequence Accession>
P11511

>  <Reference>


>  <Pubmed ID>
26469743

>  <DOI>
10.1016/j.ejmech.2015.09.038

$$$$
2058233
Actelion Java MolfileCreator 1.0

 24 27  0  0  0  0  0  0  0  0999 V2000
    0.0000   -0.0000   -0.0000 O   0  0  0  0  0  0  0  0  0  0  0  0
    1.0837    0.6461   -0.0000 C   0  0  0  0  0  0  0  0  0  0  0  0
    2.3758   -0.1042   -0.0000 C   0  0  0  0  0  0  0  0  0  0  0  0
    1.0629    2.1883   -0.0000 C   0  0  0  0  0  0  0  0  0  0  0  0
    3.6680    0.7086   -0.0000 C   0  0  0  0  0  0  0  0  0  0  0  0
    2.3342    2.9594   -0.0000 C   0  0  0  0  0  0  0  0  0  0  0  0
    1.0629    3.4596   -0.0000 C   0  0  0  0  0  0  0  0  0  0  0  0
   -0.0417    1.5422   -0.0000 C   0  0  0  0  0  0  0  0  0  0  0  0
    4.9809   -0.0417   -0.0000 C   0  0  0  0  0  0  0  0  0  0  0  0
    3.6471    2.2508   -0.0000 C   0  0  0  0  0  0  0  0  0  0  0  0
    4.9809   -1.2921   -0.0000 O   0  0  0  0  0  0  0  0  0  0  0  0
    6.2731    0.7711   -0.0000 C   0  0  0  0  0  0  0  0  0  0  0  0
    4.9392    3.0219   -0.0000 C   0  0  0  0  0  0  0  0  0  0  0  0
    3.6054    3.5429   -0.0000 C   0  0  0  0  0  0  0  0  0  0  0  0
    6.2314    2.3133   -0.0000 C   0  0  0  0  0  0  0  0  0  0  0  0
    4.8976    4.5850   -0.0000 C   0  0  0  0  0  0  0  0  0  0  0  0
    7.5235    3.0844   -0.0000 C   0  0  0  0  0  0  0  0  0  0  0  0
    6.1897    5.3769   -0.0000 C   0  0  0  0  0  0  0  0  0  0  0  0
    7.5027    4.6266   -0.0000 C   0  0  0  0  0  0  0  0  0  0  0  0
   10.1494    3.0844   -0.0000 C   0  0  0  0  0  0  0  0  0  0  0  0
    8.7948    5.4394   -0.0000 C   0  0  0  0  0  0  0  0  0  0  0  0
    7.4818    5.9188   -0.0000 C   0  0  0  0  0  0  0  0  0  0  0  0
   10.1286    4.6683   -0.0000 C   0  0  0  0  0  0  0  0  0  0  0  0
    8.7739    6.7315   -0.0000 O   0  0  0  0  0  0  0  0  0  0  0  0
  1  2  2  0  0  0  0
  2  3  1  0  0  0  0
  2  4  1  0  0  0  0
  3  5  2  0  0  0  0
  4  6  1  0  0  0  0
  4  7  1  0  0  0  0
  4  8  1  0  0  0  0
  5  9  1  0  0  0  0
  5 10  1  0  0  0  0
  9 11  2  0  0  0  0
  9 12  1  0  0  0  0
 10 13  1  0  0  0  0
 10 14  1  6  0  0  0
 15 12  1  1  0  0  0
 13 16  1  6  0  0  0
 15 17  1  0  0  0  0
 16 18  1  0  0  0  0
 17 19  1  0  0  0  0
 17 20  1  6  0  0  0
 19 21  1  0  0  0  0
 19 22  1  6  0  0  0
 20 23  1  0  0  0  0
 21 24  2  0  0  0  0
  6 10  1  0  0  0  0
 13 15  1  0  0  0  0
 18 19  1  0  0  0  0
 21 23  1  0  0  0  0
M  END
>  <MolRegNo>
2058233

>  <m>
=

>  <Value>
25

>  <Unit>
nM

>  <Type>
Ki

>  <pValue>
7.6

>  <Ligand Efficiency>
0.43

>  <Binding Efficiency>
23.15

>  <Surface Efficiency>
14.84

>  <Assay Index>
985537

>  <Assay Category>


>  <Assay Organism>
Homo sapiens

>  <Target ID>
65

>  <Target Name>
Cytochrome P450 19A1

>  <Target Organism>
Homo sapiens

>  <Target Description>
Target is a single protein chain

>  <Sequence Accession>
P11511

>  <Reference>


>  <Pubmed ID>
26469743

>  <DOI>
10.1016/j.ejmech.2015.09.038

$$$$
2058234
Actelion Java MolfileCreator 1.0

 25 28  0  0  0  0  0  0  0  0999 V2000
    0.0000   -0.0000   -0.0000 O   0  0  0  0  0  0  0  0  0  0  0  0
    1.0902    0.6499   -0.0000 C   0  0  0  0  0  0  0  0  0  0  0  0
    2.3900   -0.1048   -0.0000 C   0  0  0  0  0  0  0  0  0  0  0  0
    1.0692    2.2013   -0.0000 C   0  0  0  0  0  0  0  0  0  0  0  0
    2.3691   -1.3627   -0.0000 O   0  0  0  0  0  0  0  0  0  0  0  0
    3.6899    0.7128   -0.0000 C   0  0  0  0  0  0  0  0  0  0  0  0
    2.3481    2.9771   -0.0000 C   0  0  0  0  0  0  0  0  0  0  0  0
    1.0692    3.4802   -0.0000 C   0  0  0  0  0  0  0  0  0  0  0  0
   -0.0419    1.5514   -0.0000 C   0  0  0  0  0  0  0  0  0  0  0  0
    5.0107   -0.0419   -0.0000 C   0  0  0  0  0  0  0  0  0  0  0  0
    3.6689    2.2642   -0.0000 C   0  0  0  0  0  0  0  0  0  0  0  0
    5.0107   -1.2998   -0.0000 O   0  0  0  0  0  0  0  0  0  0  0  0
    6.3105    0.7757   -0.0000 C   0  0  0  0  0  0  0  0  0  0  0  0
    4.9688    3.0400   -0.0000 C   0  0  0  0  0  0  0  0  0  0  0  0
    3.6270    3.5641   -0.0000 C   0  0  0  0  0  0  0  0  0  0  0  0
    6.2686    2.3271   -0.0000 C   0  0  0  0  0  0  0  0  0  0  0  0
    4.9268    4.6123   -0.0000 C   0  0  0  0  0  0  0  0  0  0  0  0
    7.5684    3.1028   -0.0000 C   0  0  0  0  0  0  0  0  0  0  0  0
    6.2267    5.4090   -0.0000 C   0  0  0  0  0  0  0  0  0  0  0  0
    7.5475    4.6543   -0.0000 C   0  0  0  0  0  0  0  0  0  0  0  0
   10.2101    3.1028   -0.0000 C   0  0  0  0  0  0  0  0  0  0  0  0
    8.8473    5.4719   -0.0000 C   0  0  0  0  0  0  0  0  0  0  0  0
    7.5265    5.9541   -0.0000 C   0  0  0  0  0  0  0  0  0  0  0  0
   10.1891    4.6962   -0.0000 C   0  0  0  0  0  0  0  0  0  0  0  0
    8.8263    6.7718   -0.0000 O   0  0  0  0  0  0  0  0  0  0  0  0
  1  2  2  0  0  0  0
  2  3  1  0  0  0  0
  2  4  1  0  0  0  0
  3  5  1  0  0  0  0
  3  6  2  0  0  0  0
  4  7  1  0  0  0  0
  4  8  1  0  0  0  0
  4  9  1  0  0  0  0
  6 10  1  0  0  0  0
  6 11  1  0  0  0  0
 10 12  2  0  0  0  0
 10 13  1  0  0  0  0
 11 14  1  0  0  0  0
 11 15  1  6  0  0  0
 16 13  1  1  0  0  0
 14 17  1  6  0  0  0
 16 18  1  0  0  0  0
 17 19  1  0  0  0  0
 18 20  1  0  0  0  0
 18 21  1  6  0  0  0
 20 22  1  0  0  0  0
 20 23  1  6  0  0  0
 21 24  1  0  0  0  0
 22 25  2  0  0  0  0
  7 11  1  0  0  0  0
 14 16  1  0  0  0  0
 19 20  1  0  0  0  0
 22 24  1  0  0  0  0
M  END
>  <MolRegNo>
2058234

>  <m>
=

>  <Value>
40

>  <Unit>
nM

>  <Type>
Ki

>  <pValue>
7.4

>  <Ligand Efficiency>
0.4

>  <Binding Efficiency>
21.48

>  <Surface Efficiency>
10.36

>  <Assay Index>
985537

>  <Assay Category>


>  <Assay Organism>
Homo sapiens

>  <Target ID>
65

>  <Target Name>
Cytochrome P450 19A1

>  <Target Organism>
Homo sapiens

>  <Target Description>
Target is a single protein chain

>  <Sequence Accession>
P11511

>  <Reference>


>  <Pubmed ID>
26469743

>  <DOI>
10.1016/j.ejmech.2015.09.038

$$$$
2058235
Actelion Java MolfileCreator 1.0

 23 26  0  0  0  0  0  0  0  0999 V2000
    0.0000   -0.0000   -0.0000 O   0  0  0  0  0  0  0  0  0  0  0  0
   -0.0411    1.2735   -0.0000 C   0  0  0  0  0  0  0  0  0  0  0  0
   -1.3762    2.0540   -0.0000 C   0  0  0  0  0  0  0  0  0  0  0  0
    1.2324    2.0745   -0.0000 C   0  0  0  0  0  0  0  0  0  0  0  0
   -2.6907    1.2940   -0.0000 C   0  0  0  0  0  0  0  0  0  0  0  0
   -1.3967    3.5739   -0.0000 C   0  0  0  0  0  0  0  0  0  0  0  0
    1.1913    3.5945   -0.0000 C   0  0  0  0  0  0  0  0  0  0  0  0
   -2.7113    0.0616   -0.0000 O   0  0  0  0  0  0  0  0  0  0  0  0
   -4.0053    2.0745   -0.0000 C   0  0  0  0  0  0  0  0  0  0  0  0
   -0.1232    4.3339   -0.0000 C   0  0  0  0  0  0  0  0  0  0  0  0
   -2.7318    4.3134   -0.0000 C   0  0  0  0  0  0  0  0  0  0  0  0
   -1.4378    4.8474   -0.0000 C   0  0  0  0  0  0  0  0  0  0  0  0
    2.4648    4.3544   -0.0000 C   0  0  0  0  0  0  0  0  0  0  0  0
   -5.1144    1.4789   -0.0000 O   0  0  0  0  0  0  0  0  0  0  0  0
   -4.0258    3.5945   -0.0000 C   0  0  0  0  0  0  0  0  0  0  0  0
   -0.1643    5.8744   -0.0000 C   0  0  0  0  0  0  0  0  0  0  0  0
    2.4442    5.8744   -0.0000 C   0  0  0  0  0  0  0  0  0  0  0  0
    5.0528    4.3544   -0.0000 C   0  0  0  0  0  0  0  0  0  0  0  0
    1.1092    6.6549   -0.0000 C   0  0  0  0  0  0  0  0  0  0  0  0
    3.7177    6.6755   -0.0000 C   0  0  0  0  0  0  0  0  0  0  0  0
    2.4237    7.1479   -0.0000 C   0  0  0  0  0  0  0  0  0  0  0  0
    5.0323    5.9155   -0.0000 C   0  0  0  0  0  0  0  0  0  0  0  0
    3.6972    7.9489   -0.0000 O   0  0  0  0  0  0  0  0  0  0  0  0
  1  2  2  0  0  0  0
  2  3  1  0  0  0  0
  2  4  1  0  0  0  0
  3  5  2  0  0  0  0
  3  6  1  0  0  0  0
  7  4  1  1  0  0  0
  5  8  1  0  0  0  0
  5  9  1  0  0  0  0
  6 10  1  0  0  0  0
  6 11  1  0  0  0  0
  6 12  1  6  0  0  0
  7 13  1  0  0  0  0
  9 14  2  0  0  0  0
  9 15  1  0  0  0  0
 10 16  1  6  0  0  0
 13 17  1  0  0  0  0
 13 18  1  6  0  0  0
 16 19  1  0  0  0  0
 17 20  1  0  0  0  0
 17 21  1  6  0  0  0
 18 22  1  0  0  0  0
 20 23  2  0  0  0  0
  7 10  1  0  0  0  0
 11 15  1  0  0  0  0
 17 19  1  0  0  0  0
 20 22  1  0  0  0  0
M  END
>  <MolRegNo>
2058235

>  <m>
=

>  <Value>
42

>  <Unit>
nM

>  <Type>
Ki

>  <pValue>
7.38

>  <Ligand Efficiency>
0.44

>  <Binding Efficiency>
23.31

>  <Surface Efficiency>
10.33

>  <Assay Index>
985537

>  <Assay Category>


>  <Assay Organism>
Homo sapiens

>  <Target ID>
65

>  <Target Name>
Cytochrome P450 19A1

>  <Target Organism>
Homo sapiens

>  <Target Description>
Target is a single protein chain

>  <Sequence Accession>
P11511

>  <Reference>


>  <Pubmed ID>
26469743

>  <DOI>
10.1016/j.ejmech.2015.09.038

$$$$
2057972
Actelion Java MolfileCreator 1.0

 27 31  0  0  0  0  0  0  0  0999 V2000
    0.0000   -0.0000   -0.0000 O   0  0  0  0  0  0  0  0  0  0  0  0
    1.0583    0.6309   -0.0000 C   0  0  0  0  0  0  0  0  0  0  0  0
    2.3202   -0.1018   -0.0000 C   0  0  0  0  0  0  0  0  0  0  0  0
    1.0380    2.1370   -0.0000 C   0  0  0  0  0  0  0  0  0  0  0  0
    3.5820    0.6920   -0.0000 C   0  0  0  0  0  0  0  0  0  0  0  0
    2.2794    2.8900   -0.0000 C   0  0  0  0  0  0  0  0  0  0  0  0
    4.8642   -0.0407   -0.0000 C   0  0  0  0  0  0  0  0  0  0  0  0
    3.5616    2.1980   -0.0000 C   0  0  0  0  0  0  0  0  0  0  0  0
    6.1260    0.7530   -0.0000 C   0  0  0  0  0  0  0  0  0  0  0  0
    4.8235    2.9511   -0.0000 C   0  0  0  0  0  0  0  0  0  0  0  0
    3.5209    3.4599   -0.0000 C   0  0  0  0  0  0  0  0  0  0  0  0
    7.4489    0.0204   -0.0000 C   0  0  0  0  0  0  0  0  0  0  0  0
    6.0853    2.2591   -0.0000 C   0  0  0  0  0  0  0  0  0  0  0  0
    4.7828    4.4775   -0.0000 C   0  0  0  0  0  0  0  0  0  0  0  0
    7.4489   -1.5061   -0.0000 C   0  0  0  0  0  0  0  0  0  0  0  0
    8.7514    0.8344   -0.0000 C   0  0  0  0  0  0  0  0  0  0  0  0
    7.3471    3.0121   -0.0000 C   0  0  0  0  0  0  0  0  0  0  0  0
    6.0446    5.2509   -0.0000 C   0  0  0  0  0  0  0  0  0  0  0  0
    8.7718   -2.2387   -0.0000 C   0  0  0  0  0  0  0  0  0  0  0  0
   10.0743    0.1018   -0.0000 C   0  0  0  0  0  0  0  0  0  0  0  0
    7.3268    4.5182   -0.0000 C   0  0  0  0  0  0  0  0  0  0  0  0
    9.9115    3.0121   -0.0000 C   0  0  0  0  0  0  0  0  0  0  0  0
   10.0743   -1.4247   -0.0000 C   0  0  0  0  0  0  0  0  0  0  0  0
    8.5886    5.3119   -0.0000 C   0  0  0  0  0  0  0  0  0  0  0  0
    7.3064    5.7800   -0.0000 C   0  0  0  0  0  0  0  0  0  0  0  0
    9.8912    4.5589   -0.0000 C   0  0  0  0  0  0  0  0  0  0  0  0
    8.5683    6.5738   -0.0000 O   0  0  0  0  0  0  0  0  0  0  0  0
  1  2  2  0  0  0  0
  2  3  1  0  0  0  0
  2  4  1  0  0  0  0
  3  5  2  0  0  0  0
  4  6  2  0  0  0  0
  5  7  1  0  0  0  0
  5  8  1  0  0  0  0
  7  9  2  0  0  0  0
  8 10  1  0  0  0  0
  8 11  1  1  0  0  0
  9 12  1  0  0  0  0
 13  9  1  6  0  0  0
 10 14  1  1  0  0  0
 12 15  2  0  0  0  0
 12 16  1  0  0  0  0
 13 17  1  0  0  0  0
 14 18  1  0  0  0  0
 15 19  1  0  0  0  0
 16 20  2  0  0  0  0
 17 21  1  0  0  0  0
 17 22  1  1  0  0  0
 19 23  2  0  0  0  0
 21 24  1  0  0  0  0
 21 25  1  1  0  0  0
 22 26  1  0  0  0  0
 24 27  2  0  0  0  0
  6  8  1  0  0  0  0
 10 13  1  0  0  0  0
 18 21  1  0  0  0  0
 20 23  1  0  0  0  0
 24 26  1  0  0  0  0
M  END
>  <MolRegNo>
2057972

>  <m>
=

>  <Value>
2220

>  <Unit>
nM

>  <Type>
Ki

>  <pValue>
5.65

>  <Ligand Efficiency>
0.29

>  <Binding Efficiency>
15.77

>  <Surface Efficiency>
16.56

>  <Assay Index>
985538

>  <Assay Category>


>  <Assay Organism>
Homo sapiens

>  <Target ID>
65

>  <Target Name>
Cytochrome P450 19A1

>  <Target Organism>
Homo sapiens

>  <Target Description>
Target is a single protein chain

>  <Sequence Accession>
P11511

>  <Reference>


>  <Pubmed ID>
26469743

>  <DOI>
10.1016/j.ejmech.2015.09.038

$$$$
2057973
Actelion Java MolfileCreator 1.0

 28 32  0  0  0  0  0  0  0  0999 V2000
    0.0000   -0.0000   -0.0000 O   0  0  0  0  0  0  0  0  0  0  0  0
    1.0571    0.6302   -0.0000 C   0  0  0  0  0  0  0  0  0  0  0  0
    2.3175   -0.1016   -0.0000 C   0  0  0  0  0  0  0  0  0  0  0  0
    1.0368    2.1346   -0.0000 C   0  0  0  0  0  0  0  0  0  0  0  0
    3.5779    0.6912   -0.0000 C   0  0  0  0  0  0  0  0  0  0  0  0
    2.2769    2.8867   -0.0000 C   0  0  0  0  0  0  0  0  0  0  0  0
    4.8587   -0.0407   -0.0000 C   0  0  0  0  0  0  0  0  0  0  0  0
    3.5576    2.1956   -0.0000 C   0  0  0  0  0  0  0  0  0  0  0  0
    6.1191    0.7522   -0.0000 C   0  0  0  0  0  0  0  0  0  0  0  0
    4.8180    2.9477   -0.0000 C   0  0  0  0  0  0  0  0  0  0  0  0
    3.5169    3.4560   -0.0000 C   0  0  0  0  0  0  0  0  0  0  0  0
    6.0784    2.2565   -0.0000 C   0  0  0  0  0  0  0  0  0  0  0  0
    7.4405    0.0203   -0.0000 C   0  0  0  0  0  0  0  0  0  0  0  0
    4.7774    4.4724   -0.0000 C   0  0  0  0  0  0  0  0  0  0  0  0
    7.3388    3.0087   -0.0000 C   0  0  0  0  0  0  0  0  0  0  0  0
    7.4405   -1.5044   -0.0000 C   0  0  0  0  0  0  0  0  0  0  0  0
    6.0378    5.2449   -0.0000 C   0  0  0  0  0  0  0  0  0  0  0  0
    7.3185    4.5131   -0.0000 C   0  0  0  0  0  0  0  0  0  0  0  0
    9.9003    3.0087   -0.0000 C   0  0  0  0  0  0  0  0  0  0  0  0
    6.0988   -2.2769   -0.0000 C   0  0  0  0  0  0  0  0  0  0  0  0
    8.7619   -2.2362   -0.0000 C   0  0  0  0  0  0  0  0  0  0  0  0
    8.5789    5.3059   -0.0000 C   0  0  0  0  0  0  0  0  0  0  0  0
    7.2982    5.7735   -0.0000 C   0  0  0  0  0  0  0  0  0  0  0  0
    9.8800    4.5537   -0.0000 C   0  0  0  0  0  0  0  0  0  0  0  0
    6.0988   -3.8016   -0.0000 C   0  0  0  0  0  0  0  0  0  0  0  0
    8.7619   -3.7609   -0.0000 C   0  0  0  0  0  0  0  0  0  0  0  0
    8.5586    6.5663   -0.0000 O   0  0  0  0  0  0  0  0  0  0  0  0
    7.4202   -4.5334   -0.0000 C   0  0  0  0  0  0  0  0  0  0  0  0
  1  2  2  0  0  0  0
  2  3  1  0  0  0  0
  2  4  1  0  0  0  0
  3  5  2  0  0  0  0
  4  6  2  0  0  0  0
  5  7  1  0  0  0  0
  5  8  1  0  0  0  0
  7  9  2  0  0  0  0
  8 10  1  0  0  0  0
  8 11  1  1  0  0  0
 12  9  1  6  0  0  0
  9 13  1  0  0  0  0
 10 14  1  1  0  0  0
 12 15  1  0  0  0  0
 13 16  1  0  0  0  0
 14 17  1  0  0  0  0
 15 18  1  0  0  0  0
 15 19  1  1  0  0  0
 16 20  2  0  0  0  0
 16 21  1  0  0  0  0
 18 22  1  0  0  0  0
 18 23  1  1  0  0  0
 19 24  1  0  0  0  0
 20 25  1  0  0  0  0
 21 26  2  0  0  0  0
 22 27  2  0  0  0  0
 25 28  2  0  0  0  0
  6  8  1  0  0  0  0
 10 12  1  0  0  0  0
 17 18  1  0  0  0  0
 22 24  1  0  0  0  0
 26 28  1  0  0  0  0
M  END
>  <MolRegNo>
2057973

>  <m>
=

>  <Value>
60.9

>  <Unit>
nM

>  <Type>
Ki

>  <pValue>
7.21

>  <Ligand Efficiency>
0.35

>  <Binding Efficiency>
19.37

>  <Surface Efficiency>
21.13

>  <Assay Index>
985538

>  <Assay Category>


>  <Assay Organism>
Homo sapiens

>  <Target ID>
65

>  <Target Name>
Cytochrome P450 19A1

>  <Target Organism>
Homo sapiens

>  <Target Description>
Target is a single protein chain

>  <Sequence Accession>
P11511

>  <Reference>


>  <Pubmed ID>
26469743

>  <DOI>
10.1016/j.ejmech.2015.09.038

$$$$
2057974
Actelion Java MolfileCreator 1.0

 29 33  0  0  0  0  0  0  0  0999 V2000
    0.0000   -0.0000   -0.0000 O   0  0  0  0  0  0  0  0  0  0  0  0
    1.0575    0.6304   -0.0000 C   0  0  0  0  0  0  0  0  0  0  0  0
    2.3183   -0.1017   -0.0000 C   0  0  0  0  0  0  0  0  0  0  0  0
    1.0372    2.1353   -0.0000 C   0  0  0  0  0  0  0  0  0  0  0  0
    3.5792    0.6914   -0.0000 C   0  0  0  0  0  0  0  0  0  0  0  0
    2.2777    2.8878   -0.0000 C   0  0  0  0  0  0  0  0  0  0  0  0
    4.8604   -0.0407   -0.0000 C   0  0  0  0  0  0  0  0  0  0  0  0
    3.5589    2.1963   -0.0000 C   0  0  0  0  0  0  0  0  0  0  0  0
    6.1212    0.7524   -0.0000 C   0  0  0  0  0  0  0  0  0  0  0  0
    4.8197    2.9488   -0.0000 C   0  0  0  0  0  0  0  0  0  0  0  0
    3.5182    3.4572   -0.0000 C   0  0  0  0  0  0  0  0  0  0  0  0
    6.0806    2.2573   -0.0000 C   0  0  0  0  0  0  0  0  0  0  0  0
    7.4431    0.0203   -0.0000 C   0  0  0  0  0  0  0  0  0  0  0  0
    4.7790    4.4740   -0.0000 C   0  0  0  0  0  0  0  0  0  0  0  0
    7.3414    3.0098   -0.0000 C   0  0  0  0  0  0  0  0  0  0  0  0
    7.4431   -1.5049   -0.0000 C   0  0  0  0  0  0  0  0  0  0  0  0
    6.0399    5.2468   -0.0000 C   0  0  0  0  0  0  0  0  0  0  0  0
    7.3211    4.5147   -0.0000 C   0  0  0  0  0  0  0  0  0  0  0  0
    9.9038    3.0098   -0.0000 C   0  0  0  0  0  0  0  0  0  0  0  0
    8.7650   -2.2370   -0.0000 C   0  0  0  0  0  0  0  0  0  0  0  0
    8.5819    5.3078   -0.0000 C   0  0  0  0  0  0  0  0  0  0  0  0
    7.3007    5.7755   -0.0000 C   0  0  0  0  0  0  0  0  0  0  0  0
    9.8835    4.5553   -0.0000 C   0  0  0  0  0  0  0  0  0  0  0  0
   10.0665   -1.4235   -0.0000 C   0  0  0  0  0  0  0  0  0  0  0  0
    8.7650   -3.7622   -0.0000 C   0  0  0  0  0  0  0  0  0  0  0  0
    8.5616    6.5686   -0.0000 O   0  0  0  0  0  0  0  0  0  0  0  0
   11.3883   -2.1556   -0.0000 C   0  0  0  0  0  0  0  0  0  0  0  0
   10.0868   -4.4943   -0.0000 C   0  0  0  0  0  0  0  0  0  0  0  0
   11.3883   -3.6809   -0.0000 C   0  0  0  0  0  0  0  0  0  0  0  0
  1  2  2  0  0  0  0
  2  3  1  0  0  0  0
  2  4  1  0  0  0  0
  3  5  2  0  0  0  0
  4  6  2  0  0  0  0
  5  7  1  0  0  0  0
  5  8  1  0  0  0  0
  7  9  2  0  0  0  0
  8 10  1  0  0  0  0
  8 11  1  1  0  0  0
 12  9  1  6  0  0  0
  9 13  1  0  0  0  0
 10 14  1  1  0  0  0
 12 15  1  0  0  0  0
 13 16  1  0  0  0  0
 14 17  1  0  0  0  0
 15 18  1  0  0  0  0
 15 19  1  1  0  0  0
 16 20  1  0  0  0  0
 18 21  1  0  0  0  0
 18 22  1  1  0  0  0
 19 23  1  0  0  0  0
 20 24  2  0  0  0  0
 20 25  1  0  0  0  0
 21 26  2  0  0  0  0
 24 27  1  0  0  0  0
 25 28  2  0  0  0  0
 27 29  2  0  0  0  0
  6  8  1  0  0  0  0
 10 12  1  0  0  0  0
 17 18  1  0  0  0  0
 21 23  1  0  0  0  0
 28 29  1  0  0  0  0
M  END
>  <MolRegNo>
2057974

>  <m>
=

>  <Value>
172

>  <Unit>
nM

>  <Type>
Ki

>  <pValue>
6.76

>  <Ligand Efficiency>
0.32

>  <Binding Efficiency>
17.5

>  <Surface Efficiency>
19.81

>  <Assay Index>
985538

>  <Assay Category>


>  <Assay Organism>
Homo sapiens

>  <Target ID>
65

>  <Target Name>
Cytochrome P450 19A1

>  <Target Organism>
Homo sapiens

>  <Target Description>
Target is a single protein chain

>  <Sequence Accession>
P11511

>  <Reference>


>  <Pubmed ID>
26469743

>  <DOI>
10.1016/j.ejmech.2015.09.038

$$$$
2058069
Actelion Java MolfileCreator 1.0

 41 46  0  0  0  0  0  0  0  0999 V2000
    0.0000   -0.0000   -0.0000 S   0  0  0  0  0  0  0  0  0  0  0  0
    0.0000   -1.5308   -0.0000 C   0  0  0  0  0  0  0  0  0  0  0  0
   -1.3675    0.7756   -0.0000 C   0  0  0  0  0  0  0  0  0  0  0  0
    1.3267   -2.2656   -0.0000 C   0  0  0  0  0  0  0  0  0  0  0  0
   -1.3471   -2.3064   -0.0000 C   0  0  0  0  0  0  0  0  0  0  0  0
   -1.4084    2.2860   -0.0000 C   0  0  0  0  0  0  0  0  0  0  0  0
   -2.6738    0.0204   -0.0000 C   0  0  0  0  0  0  0  0  0  0  0  0
    1.3267   -3.7964   -0.0000 C   0  0  0  0  0  0  0  0  0  0  0  0
   -1.3471   -3.8372   -0.0000 C   0  0  0  0  0  0  0  0  0  0  0  0
   -2.7146    3.0208   -0.0000 C   0  0  0  0  0  0  0  0  0  0  0  0
   -0.1429    3.0412   -0.0000 C   0  0  0  0  0  0  0  0  0  0  0  0
   -4.0005    0.7960   -0.0000 C   0  0  0  0  0  0  0  0  0  0  0  0
   -0.0204   -4.5720   -0.0000 C   0  0  0  0  0  0  0  0  0  0  0  0
   -4.0209    2.3064   -0.0000 C   0  0  0  0  0  0  0  0  0  0  0  0
   -2.7555    4.5516   -0.0000 C   0  0  0  0  0  0  0  0  0  0  0  0
   -0.1633    4.5516   -0.0000 C   0  0  0  0  0  0  0  0  0  0  0  0
    2.4289    3.0412   -0.0000 C   0  0  0  0  0  0  0  0  0  0  0  0
   -5.3068    0.0408   -0.0000 C   0  0  0  0  0  0  0  0  0  0  0  0
   -0.0204   -6.1029   -0.0000 N   0  0  0  0  0  0  0  0  0  0  0  0
   -5.3476    3.0412   -0.0000 C   0  0  0  0  0  0  0  0  0  0  0  0
   -4.0618    3.5719   -0.0000 C   0  0  0  0  0  0  0  0  0  0  0  0
   -1.4900    5.3272   -0.0000 C   0  0  0  0  0  0  0  0  0  0  0  0
    1.1022    5.3476   -0.0000 C   0  0  0  0  0  0  0  0  0  0  0  0
   -0.1837    5.8171   -0.0000 C   0  0  0  0  0  0  0  0  0  0  0  0
    2.4085    4.5924   -0.0000 C   0  0  0  0  0  0  0  0  0  0  0  0
   -6.6131    0.8164   -0.0000 C   0  0  0  0  0  0  0  0  0  0  0  0
   -1.3675   -6.8785   -0.0000 C   0  0  0  0  0  0  0  0  0  0  0  0
   -6.6335    2.3268   -0.0000 C   0  0  0  0  0  0  0  0  0  0  0  0
    1.0818    6.6131   -0.0000 O   0  0  0  0  0  0  0  0  0  0  0  0
   -7.7153    0.2245   -0.0000 O   0  0  0  0  0  0  0  0  0  0  0  0
   -1.3675   -8.4093   -0.0000 C   0  0  0  0  0  0  0  0  0  0  0  0
   -2.7351   -6.1029   -0.0000 C   0  0  0  0  0  0  0  0  0  0  0  0
   -0.0408   -9.1441   -0.0000 N   0  0  0  0  0  0  0  0  0  0  0  0
   -2.7146   -9.1645   -0.0000 C   0  0  0  0  0  0  0  0  0  0  0  0
   -4.0822   -6.8581   -0.0000 C   0  0  0  0  0  0  0  0  0  0  0  0
   -0.0408  -10.3687   -0.0000 O   0  0  0  0  0  0  0  0  0  0  0  0
    1.0001   -8.4909   -0.0000 O   0  0  0  0  0  0  0  0  0  0  0  0
   -4.0822   -8.3889   -0.0000 C   0  0  0  0  0  0  0  0  0  0  0  0
   -5.4293   -9.1645   -0.0000 N   0  0  0  0  0  0  0  0  0  0  0  0
   -5.4293  -10.3891   -0.0000 O   0  0  0  0  0  0  0  0  0  0  0  0
   -6.5315   -8.5317   -0.0000 O   0  0  0  0  0  0  0  0  0  0  0  0
  1  2  1  0  0  0  0
  3  1  1  1  0  0  0
  2  4  2  0  0  0  0
  2  5  1  0  0  0  0
  6  3  1  1  0  0  0
  3  7  1  0  0  0  0
  4  8  1  0  0  0  0
  5  9  2  0  0  0  0
  6 10  1  0  0  0  0
  6 11  1  0  0  0  0
  7 12  1  0  0  0  0
  8 13  2  0  0  0  0
 10 14  1  0  0  0  0
 10 15  1  6  0  0  0
 11 16  1  0  0  0  0
 11 17  1  6  0  0  0
 12 18  2  0  0  0  0
 13 19  1  0  0  0  0
 14 20  1  0  0  0  0
 14 21  1  6  0  0  0
 15 22  1  0  0  0  0
 16 23  1  0  0  0  0
 16 24  1  6  0  0  0
 17 25  1  0  0  0  0
 18 26  1  0  0  0  0
 19 27  1  0  0  0  0
 20 28  1  0  0  0  0
 23 29  2  0  0  0  0
 26 30  2  0  0  0  0
 27 31  2  0  0  0  0
 27 32  1  0  0  0  0
 31 33  1  0  0  0  0
 31 34  1  0  0  0  0
 32 35  2  0  0  0  0
 33 36  2  0  0  0  0
 33 37  1  0  0  0  0
 34 38  2  0  0  0  0
 38 39  1  0  0  0  0
 39 40  2  0  0  0  0
 39 41  1  0  0  0  0
  9 13  1  0  0  0  0
 12 14  1  0  0  0  0
 16 22  1  0  0  0  0
 23 25  1  0  0  0  0
 26 28  1  0  0  0  0
 35 38  1  0  0  0  0
M  CHG  4  33   1  37  -1  39   1  41  -1
M  END
>  <MolRegNo>
2058069

>  <m>
=

>  <Value>
24.1

>  <Unit>
nM

>  <Type>
Ki

>  <pValue>
7.62

>  <Ligand Efficiency>
0.25

>  <Binding Efficiency>
13.23

>  <Surface Efficiency>
5.75

>  <Assay Index>
985541

>  <Assay Category>


>  <Assay Organism>
Homo sapiens

>  <Target ID>
65

>  <Target Name>
Cytochrome P450 19A1

>  <Target Organism>
Homo sapiens

>  <Target Description>
Target is a single protein chain

>  <Sequence Accession>
P11511

>  <Reference>


>  <Pubmed ID>
26469743

>  <DOI>
10.1016/j.ejmech.2015.09.038

$$$$
2058070
Actelion Java MolfileCreator 1.0

 45 51  0  0  0  0  0  0  0  0999 V2000
    0.0000   -0.0000   -0.0000 S   0  0  0  0  0  0  0  0  0  0  0  0
   -1.0957    0.6290   -0.0000 O   0  0  0  0  0  0  0  0  0  0  0  0
   -0.0406    1.2581   -0.0000 O   0  0  0  0  0  0  0  0  0  0  0  0
    1.2987    0.8117   -0.0000 N   0  0  0  0  0  0  0  0  0  0  0  0
    0.0000   -1.5219   -0.0000 C   0  0  0  0  0  0  0  0  0  0  0  0
    1.2581    2.3741   -0.0000 C   0  0  0  0  0  0  0  0  0  0  0  0
   -1.3392   -2.2727   -0.0000 C   0  0  0  0  0  0  0  0  0  0  0  0
    1.3392   -2.2524   -0.0000 C   0  0  0  0  0  0  0  0  0  0  0  0
    2.5567    3.1858   -0.0000 C   0  0  0  0  0  0  0  0  0  0  0  0
   -0.1015    3.1452   -0.0000 C   0  0  0  0  0  0  0  0  0  0  0  0
   -1.3392   -3.7945   -0.0000 C   0  0  0  0  0  0  0  0  0  0  0  0
   -2.6988   -1.5016   -0.0000 C   0  0  0  0  0  0  0  0  0  0  0  0
    1.3392   -3.7540   -0.0000 C   0  0  0  0  0  0  0  0  0  0  0  0
    2.5162    4.7482   -0.0000 C   0  0  0  0  0  0  0  0  0  0  0  0
   -0.1420    4.7077   -0.0000 C   0  0  0  0  0  0  0  0  0  0  0  0
   -2.6785   -4.5453   -0.0000 C   0  0  0  0  0  0  0  0  0  0  0  0
   -0.0203   -4.5250   -0.0000 C   0  0  0  0  0  0  0  0  0  0  0  0
   -4.0380   -2.2524   -0.0000 C   0  0  0  0  0  0  0  0  0  0  0  0
    1.1566    5.5193   -0.0000 C   0  0  0  0  0  0  0  0  0  0  0  0
   -2.6988   -6.0672   -0.0000 N   0  0  0  0  0  0  0  0  0  0  0  0
   -4.0380   -3.7742   -0.0000 C   0  0  0  0  0  0  0  0  0  0  0  0
    1.1160    7.0818   -0.0000 S   0  0  0  0  0  0  0  0  0  0  0  0
   -1.6436   -6.6557   -0.0000 C   0  0  0  0  0  0  0  0  0  0  0  0
   -3.7742   -6.6759   -0.0000 C   0  0  0  0  0  0  0  0  0  0  0  0
   -0.2435    7.8529   -0.0000 C   0  0  0  0  0  0  0  0  0  0  0  0
   -0.2841    9.3544   -0.0000 C   0  0  0  0  0  0  0  0  0  0  0  0
   -1.5422    7.1021   -0.0000 C   0  0  0  0  0  0  0  0  0  0  0  0
   -1.5827   10.0849   -0.0000 C   0  0  0  0  0  0  0  0  0  0  0  0
    0.9740   10.1052   -0.0000 C   0  0  0  0  0  0  0  0  0  0  0  0
   -2.8611    7.8732   -0.0000 C   0  0  0  0  0  0  0  0  0  0  0  0
   -2.8814    9.3747   -0.0000 C   0  0  0  0  0  0  0  0  0  0  0  0
   -1.6233   11.6068   -0.0000 C   0  0  0  0  0  0  0  0  0  0  0  0
    0.9537   11.6068   -0.0000 C   0  0  0  0  0  0  0  0  0  0  0  0
    3.5307   10.1052   -0.0000 C   0  0  0  0  0  0  0  0  0  0  0  0
   -4.1598    7.1224   -0.0000 C   0  0  0  0  0  0  0  0  0  0  0  0
   -4.2004   10.1052   -0.0000 C   0  0  0  0  0  0  0  0  0  0  0  0
   -2.9220   10.6328   -0.0000 C   0  0  0  0  0  0  0  0  0  0  0  0
   -0.3652   12.3779   -0.0000 C   0  0  0  0  0  0  0  0  0  0  0  0
    2.2118   12.3982   -0.0000 C   0  0  0  0  0  0  0  0  0  0  0  0
    0.9334   12.8649   -0.0000 C   0  0  0  0  0  0  0  0  0  0  0  0
    3.5105   11.6474   -0.0000 C   0  0  0  0  0  0  0  0  0  0  0  0
   -5.4584    7.8934   -0.0000 C   0  0  0  0  0  0  0  0  0  0  0  0
   -5.4787    9.3950   -0.0000 C   0  0  0  0  0  0  0  0  0  0  0  0
    2.1915   13.6563   -0.0000 O   0  0  0  0  0  0  0  0  0  0  0  0
   -6.5542    7.3050   -0.0000 O   0  0  0  0  0  0  0  0  0  0  0  0
  1  2  2  0  0  0  0
  1  3  2  0  0  0  0
  1  4  1  0  0  0  0
  1  5  1  0  0  0  0
  4  6  1  0  0  0  0
  5  7  1  0  0  0  0
  5  8  2  0  0  0  0
  6  9  2  0  0  0  0
  6 10  1  0  0  0  0
  7 11  1  0  0  0  0
  7 12  2  0  0  0  0
  8 13  1  0  0  0  0
  9 14  1  0  0  0  0
 10 15  2  0  0  0  0
 11 16  2  0  0  0  0
 11 17  1  0  0  0  0
 12 18  1  0  0  0  0
 14 19  2  0  0  0  0
 16 20  1  0  0  0  0
 16 21  1  0  0  0  0
 19 22  1  0  0  0  0
 20 23  1  0  0  0  0
 20 24  1  0  0  0  0
 25 22  1  1  0  0  0
 26 25  1  1  0  0  0
 25 27  1  0  0  0  0
 26 28  1  0  0  0  0
 26 29  1  0  0  0  0
 27 30  1  0  0  0  0
 28 31  1  0  0  0  0
 28 32  1  6  0  0  0
 29 33  1  0  0  0  0
 29 34  1  6  0  0  0
 30 35  2  0  0  0  0
 31 36  1  0  0  0  0
 31 37  1  6  0  0  0
 32 38  1  0  0  0  0
 33 39  1  0  0  0  0
 33 40  1  6  0  0  0
 34 41  1  0  0  0  0
 35 42  1  0  0  0  0
 36 43  1  0  0  0  0
 39 44  2  0  0  0  0
 42 45  2  0  0  0  0
 13 17  2  0  0  0  0
 15 19  1  0  0  0  0
 18 21  2  0  0  0  0
 30 31  1  0  0  0  0
 33 38  1  0  0  0  0
 39 41  1  0  0  0  0
 42 43  1  0  0  0  0
M  END
>  <MolRegNo>
2058070

>  <m>
=

>  <Value>
24.1

>  <Unit>
nM

>  <Type>
Ki

>  <pValue>
7.62

>  <Ligand Efficiency>
0.23

>  <Binding Efficiency>
11.85

>  <Surface Efficiency>
9.12

>  <Assay Index>
985541

>  <Assay Category>


>  <Assay Organism>
Homo sapiens

>  <Target ID>
65

>  <Target Name>
Cytochrome P450 19A1

>  <Target Organism>
Homo sapiens

>  <Target Description>
Target is a single protein chain

>  <Sequence Accession>
P11511

>  <Reference>


>  <Pubmed ID>
26469743

>  <DOI>
10.1016/j.ejmech.2015.09.038

$$$$
2058071
Actelion Java MolfileCreator 1.0

 32 37  0  0  0  0  0  0  0  0999 V2000
    0.0000   -0.0000   -0.0000 S   0  0  0  0  0  0  0  0  0  0  0  0
    0.0000   -1.5112   -0.0000 C   0  0  0  0  0  0  0  0  0  0  0  0
   -1.3500    0.7657   -0.0000 C   0  0  0  0  0  0  0  0  0  0  0  0
    1.3097   -2.2366   -0.0000 C   0  0  0  0  0  0  0  0  0  0  0  0
   -1.3500   -2.2769   -0.0000 C   0  0  0  0  0  0  0  0  0  0  0  0
   -1.3903    2.2568   -0.0000 C   0  0  0  0  0  0  0  0  0  0  0  0
   -2.6396    0.0201   -0.0000 C   0  0  0  0  0  0  0  0  0  0  0  0
    1.3097   -3.7277   -0.0000 C   0  0  0  0  0  0  0  0  0  0  0  0
    2.5993   -1.4306   -0.0000 C   0  0  0  0  0  0  0  0  0  0  0  0
   -1.3500   -3.7680   -0.0000 C   0  0  0  0  0  0  0  0  0  0  0  0
   -2.6799    2.9822   -0.0000 C   0  0  0  0  0  0  0  0  0  0  0  0
   -0.1410    3.0023   -0.0000 C   0  0  0  0  0  0  0  0  0  0  0  0
   -3.9494    0.7858   -0.0000 C   0  0  0  0  0  0  0  0  0  0  0  0
   -0.0201   -4.4934   -0.0000 C   0  0  0  0  0  0  0  0  0  0  0  0
    2.6195   -4.4531   -0.0000 C   0  0  0  0  0  0  0  0  0  0  0  0
    3.9091   -2.1560   -0.0000 C   0  0  0  0  0  0  0  0  0  0  0  0
   -3.9695    2.2769   -0.0000 C   0  0  0  0  0  0  0  0  0  0  0  0
   -2.7202    4.4934   -0.0000 C   0  0  0  0  0  0  0  0  0  0  0  0
   -0.1612    4.4934   -0.0000 C   0  0  0  0  0  0  0  0  0  0  0  0
    2.3978    3.0023   -0.0000 C   0  0  0  0  0  0  0  0  0  0  0  0
   -5.2389    0.0403   -0.0000 C   0  0  0  0  0  0  0  0  0  0  0  0
    3.9091   -3.6471   -0.0000 C   0  0  0  0  0  0  0  0  0  0  0  0
   -5.2792    3.0023   -0.0000 C   0  0  0  0  0  0  0  0  0  0  0  0
   -4.0098    3.5262   -0.0000 C   0  0  0  0  0  0  0  0  0  0  0  0
   -1.4709    5.2591   -0.0000 C   0  0  0  0  0  0  0  0  0  0  0  0
    1.0881    5.2792   -0.0000 C   0  0  0  0  0  0  0  0  0  0  0  0
   -0.1813    5.7427   -0.0000 C   0  0  0  0  0  0  0  0  0  0  0  0
    2.3777    4.5337   -0.0000 C   0  0  0  0  0  0  0  0  0  0  0  0
   -6.5285    0.8060   -0.0000 C   0  0  0  0  0  0  0  0  0  0  0  0
   -6.5487    2.2971   -0.0000 C   0  0  0  0  0  0  0  0  0  0  0  0
    1.0679    6.5285   -0.0000 O   0  0  0  0  0  0  0  0  0  0  0  0
   -7.6166    0.2216   -0.0000 O   0  0  0  0  0  0  0  0  0  0  0  0
  1  2  1  0  0  0  0
  3  1  1  1  0  0  0
  2  4  1  0  0  0  0
  2  5  2  0  0  0  0
  6  3  1  1  0  0  0
  3  7  1  0  0  0  0
  4  8  1  0  0  0  0
  4  9  2  0  0  0  0
  5 10  1  0  0  0  0
  6 11  1  0  0  0  0
  6 12  1  0  0  0  0
  7 13  1  0  0  0  0
  8 14  1  0  0  0  0
  8 15  2  0  0  0  0
  9 16  1  0  0  0  0
 11 17  1  0  0  0  0
 11 18  1  6  0  0  0
 12 19  1  0  0  0  0
 12 20  1  6  0  0  0
 13 21  2  0  0  0  0
 15 22  1  0  0  0  0
 17 23  1  0  0  0  0
 17 24  1  6  0  0  0
 18 25  1  0  0  0  0
 19 26  1  0  0  0  0
 19 27  1  6  0  0  0
 20 28  1  0  0  0  0
 21 29  1  0  0  0  0
 23 30  1  0  0  0  0
 26 31  2  0  0  0  0
 29 32  2  0  0  0  0
 10 14  2  0  0  0  0
 13 17  1  0  0  0  0
 16 22  2  0  0  0  0
 19 25  1  0  0  0  0
 26 28  1  0  0  0  0
 29 30  1  0  0  0  0
M  END
>  <MolRegNo>
2058071

>  <m>
=

>  <Value>
24.1

>  <Unit>
nM

>  <Type>
Ki

>  <pValue>
7.62

>  <Ligand Efficiency>
0.33

>  <Binding Efficiency>
17.13

>  <Surface Efficiency>
22.31

>  <Assay Index>
985541

>  <Assay Category>


>  <Assay Organism>
Homo sapiens

>  <Target ID>
65

>  <Target Name>
Cytochrome P450 19A1

>  <Target Organism>
Homo sapiens

>  <Target Description>
Target is a single protein chain

>  <Sequence Accession>
P11511

>  <Reference>


>  <Pubmed ID>
26469743

>  <DOI>
10.1016/j.ejmech.2015.09.038

$$$$
2058072
Actelion Java MolfileCreator 1.0

 32 37  0  0  0  0  0  0  0  0999 V2000
    0.0000   -0.0000   -0.0000 S   0  0  0  0  0  0  0  0  0  0  0  0
    0.0000   -1.5123   -0.0000 C   0  0  0  0  0  0  0  0  0  0  0  0
   -1.3510    0.7662   -0.0000 C   0  0  0  0  0  0  0  0  0  0  0  0
    1.3106   -2.2583   -0.0000 C   0  0  0  0  0  0  0  0  0  0  0  0
   -1.3308   -2.2785   -0.0000 C   0  0  0  0  0  0  0  0  0  0  0  0
   -1.3913    2.2583   -0.0000 C   0  0  0  0  0  0  0  0  0  0  0  0
   -2.6414    0.0202   -0.0000 C   0  0  0  0  0  0  0  0  0  0  0  0
    1.3106   -3.7505   -0.0000 C   0  0  0  0  0  0  0  0  0  0  0  0
   -1.3106   -3.7908   -0.0000 C   0  0  0  0  0  0  0  0  0  0  0  0
   -2.6818    2.9842   -0.0000 C   0  0  0  0  0  0  0  0  0  0  0  0
   -0.1411    3.0044   -0.0000 C   0  0  0  0  0  0  0  0  0  0  0  0
   -3.9521    0.7864   -0.0000 C   0  0  0  0  0  0  0  0  0  0  0  0
   -0.0202   -4.5167   -0.0000 C   0  0  0  0  0  0  0  0  0  0  0  0
    2.6213   -4.4763   -0.0000 C   0  0  0  0  0  0  0  0  0  0  0  0
   -3.9723    2.2785   -0.0000 C   0  0  0  0  0  0  0  0  0  0  0  0
   -2.7221    4.4965   -0.0000 C   0  0  0  0  0  0  0  0  0  0  0  0
   -0.1613    4.4965   -0.0000 C   0  0  0  0  0  0  0  0  0  0  0  0
    2.3995    3.0044   -0.0000 C   0  0  0  0  0  0  0  0  0  0  0  0
   -5.2426    0.0403   -0.0000 C   0  0  0  0  0  0  0  0  0  0  0  0
   -0.0202   -6.0088   -0.0000 C   0  0  0  0  0  0  0  0  0  0  0  0
    2.6213   -5.9685   -0.0000 C   0  0  0  0  0  0  0  0  0  0  0  0
   -5.2829    3.0044   -0.0000 C   0  0  0  0  0  0  0  0  0  0  0  0
   -4.0126    3.5287   -0.0000 C   0  0  0  0  0  0  0  0  0  0  0  0
   -1.4720    5.2627   -0.0000 C   0  0  0  0  0  0  0  0  0  0  0  0
    1.0888    5.2829   -0.0000 C   0  0  0  0  0  0  0  0  0  0  0  0
   -0.1815    5.7467   -0.0000 C   0  0  0  0  0  0  0  0  0  0  0  0
    2.3793    4.5368   -0.0000 C   0  0  0  0  0  0  0  0  0  0  0  0
   -6.5330    0.8065   -0.0000 C   0  0  0  0  0  0  0  0  0  0  0  0
    1.2905   -6.7347   -0.0000 C   0  0  0  0  0  0  0  0  0  0  0  0
   -6.5532    2.2987   -0.0000 C   0  0  0  0  0  0  0  0  0  0  0  0
    1.0687    6.5330   -0.0000 O   0  0  0  0  0  0  0  0  0  0  0  0
   -7.6219    0.2218   -0.0000 O   0  0  0  0  0  0  0  0  0  0  0  0
  1  2  1  0  0  0  0
  3  1  1  1  0  0  0
  2  4  2  0  0  0  0
  2  5  1  0  0  0  0
  6  3  1  1  0  0  0
  3  7  1  0  0  0  0
  4  8  1  0  0  0  0
  5  9  2  0  0  0  0
  6 10  1  0  0  0  0
  6 11  1  0  0  0  0
  7 12  1  0  0  0  0
  8 13  1  0  0  0  0
  8 14  2  0  0  0  0
 10 15  1  0  0  0  0
 10 16  1  6  0  0  0
 11 17  1  0  0  0  0
 11 18  1  6  0  0  0
 12 19  2  0  0  0  0
 13 20  2  0  0  0  0
 14 21  1  0  0  0  0
 15 22  1  0  0  0  0
 15 23  1  6  0  0  0
 16 24  1  0  0  0  0
 17 25  1  0  0  0  0
 17 26  1  6  0  0  0
 18 27  1  0  0  0  0
 19 28  1  0  0  0  0
 20 29  1  0  0  0  0
 22 30  1  0  0  0  0
 25 31  2  0  0  0  0
 28 32  2  0  0  0  0
  9 13  1  0  0  0  0
 12 15  1  0  0  0  0
 17 24  1  0  0  0  0
 21 29  2  0  0  0  0
 25 27  1  0  0  0  0
 28 30  1  0  0  0  0
M  END
>  <MolRegNo>
2058072

>  <m>
=

>  <Value>
24.1

>  <Unit>
nM

>  <Type>
Ki

>  <pValue>
7.62

>  <Ligand Efficiency>
0.33

>  <Binding Efficiency>
17.13

>  <Surface Efficiency>
22.31

>  <Assay Index>
985541

>  <Assay Category>


>  <Assay Organism>
Homo sapiens

>  <Target ID>
65

>  <Target Name>
Cytochrome P450 19A1

>  <Target Organism>
Homo sapiens

>  <Target Description>
Target is a single protein chain

>  <Sequence Accession>
P11511

>  <Reference>


>  <Pubmed ID>
26469743

>  <DOI>
10.1016/j.ejmech.2015.09.038

$$$$
2058073
Actelion Java MolfileCreator 1.0

 32 37  0  0  0  0  0  0  0  0999 V2000
    0.0000   -0.0000   -0.0000 S   0  0  0  0  0  0  0  0  0  0  0  0
    0.0000   -1.5112   -0.0000 C   0  0  0  0  0  0  0  0  0  0  0  0
   -1.3500    0.7657   -0.0000 C   0  0  0  0  0  0  0  0  0  0  0  0
    1.3097   -2.2366   -0.0000 C   0  0  0  0  0  0  0  0  0  0  0  0
   -1.3500   -2.2769   -0.0000 C   0  0  0  0  0  0  0  0  0  0  0  0
   -1.3903    2.2568   -0.0000 C   0  0  0  0  0  0  0  0  0  0  0  0
   -2.6396    0.0201   -0.0000 C   0  0  0  0  0  0  0  0  0  0  0  0
    1.3097   -3.7277   -0.0000 C   0  0  0  0  0  0  0  0  0  0  0  0
    2.5993   -1.4306   -0.0000 C   0  0  0  0  0  0  0  0  0  0  0  0
   -1.3500   -3.7680   -0.0000 C   0  0  0  0  0  0  0  0  0  0  0  0
   -2.6799    2.9822   -0.0000 C   0  0  0  0  0  0  0  0  0  0  0  0
   -0.1410    3.0023   -0.0000 C   0  0  0  0  0  0  0  0  0  0  0  0
   -3.9494    0.7858   -0.0000 C   0  0  0  0  0  0  0  0  0  0  0  0
   -0.0201   -4.4934   -0.0000 C   0  0  0  0  0  0  0  0  0  0  0  0
    2.6195   -4.4531   -0.0000 C   0  0  0  0  0  0  0  0  0  0  0  0
    3.9091   -2.1560   -0.0000 C   0  0  0  0  0  0  0  0  0  0  0  0
   -3.9695    2.2769   -0.0000 C   0  0  0  0  0  0  0  0  0  0  0  0
   -2.7202    4.4934   -0.0000 C   0  0  0  0  0  0  0  0  0  0  0  0
   -0.1612    4.4934   -0.0000 C   0  0  0  0  0  0  0  0  0  0  0  0
    2.3978    3.0023   -0.0000 C   0  0  0  0  0  0  0  0  0  0  0  0
   -5.2389    0.0403   -0.0000 C   0  0  0  0  0  0  0  0  0  0  0  0
    3.9091   -3.6471   -0.0000 C   0  0  0  0  0  0  0  0  0  0  0  0
   -5.2792    3.0023   -0.0000 C   0  0  0  0  0  0  0  0  0  0  0  0
   -4.0098    3.5262   -0.0000 C   0  0  0  0  0  0  0  0  0  0  0  0
   -1.4709    5.2591   -0.0000 C   0  0  0  0  0  0  0  0  0  0  0  0
    1.0881    5.2792   -0.0000 C   0  0  0  0  0  0  0  0  0  0  0  0
   -0.1813    5.7427   -0.0000 C   0  0  0  0  0  0  0  0  0  0  0  0
    2.3777    4.5337   -0.0000 C   0  0  0  0  0  0  0  0  0  0  0  0
   -6.5285    0.8060   -0.0000 C   0  0  0  0  0  0  0  0  0  0  0  0
   -6.5487    2.2971   -0.0000 C   0  0  0  0  0  0  0  0  0  0  0  0
    1.0679    6.5285   -0.0000 O   0  0  0  0  0  0  0  0  0  0  0  0
   -7.6166    0.2216   -0.0000 O   0  0  0  0  0  0  0  0  0  0  0  0
  1  2  1  0  0  0  0
  3  1  1  6  0  0  0
  2  4  1  0  0  0  0
  2  5  2  0  0  0  0
  6  3  1  6  0  0  0
  3  7  1  0  0  0  0
  4  8  1  0  0  0  0
  4  9  2  0  0  0  0
  5 10  1  0  0  0  0
  6 11  1  0  0  0  0
  6 12  1  0  0  0  0
  7 13  1  0  0  0  0
  8 14  1  0  0  0  0
  8 15  2  0  0  0  0
  9 16  1  0  0  0  0
 11 17  1  0  0  0  0
 11 18  1  1  0  0  0
 12 19  1  0  0  0  0
 12 20  1  1  0  0  0
 13 21  2  0  0  0  0
 15 22  1  0  0  0  0
 17 23  1  0  0  0  0
 17 24  1  1  0  0  0
 18 25  1  0  0  0  0
 19 26  1  0  0  0  0
 19 27  1  1  0  0  0
 20 28  1  0  0  0  0
 21 29  1  0  0  0  0
 23 30  2  0  0  0  0
 26 31  2  0  0  0  0
 29 32  2  0  0  0  0
 10 14  2  0  0  0  0
 13 17  1  0  0  0  0
 16 22  2  0  0  0  0
 19 25  1  0  0  0  0
 26 28  1  0  0  0  0
 29 30  1  0  0  0  0
M  END
>  <MolRegNo>
2058073

>  <m>
=

>  <Value>
12

>  <Unit>
nM

>  <Type>
Ki

>  <pValue>
7.92

>  <Ligand Efficiency>
0.34

>  <Binding Efficiency>
17.9

>  <Surface Efficiency>
23.2

>  <Assay Index>
985542

>  <Assay Category>


>  <Assay Organism>
Homo sapiens

>  <Target ID>
65

>  <Target Name>
Cytochrome P450 19A1

>  <Target Organism>
Homo sapiens

>  <Target Description>
Target is a single protein chain

>  <Sequence Accession>
P11511

>  <Reference>


>  <Pubmed ID>
26469743

>  <DOI>
10.1016/j.ejmech.2015.09.038

$$$$
2058074
Actelion Java MolfileCreator 1.0

 32 37  0  0  0  0  0  0  0  0999 V2000
    0.0000   -0.0000   -0.0000 S   0  0  0  0  0  0  0  0  0  0  0  0
    0.0000   -1.5123   -0.0000 C   0  0  0  0  0  0  0  0  0  0  0  0
   -1.3510    0.7662   -0.0000 C   0  0  0  0  0  0  0  0  0  0  0  0
    1.3106   -2.2583   -0.0000 C   0  0  0  0  0  0  0  0  0  0  0  0
   -1.3308   -2.2785   -0.0000 C   0  0  0  0  0  0  0  0  0  0  0  0
   -1.3913    2.2583   -0.0000 C   0  0  0  0  0  0  0  0  0  0  0  0
   -2.6414    0.0202   -0.0000 C   0  0  0  0  0  0  0  0  0  0  0  0
    1.3106   -3.7505   -0.0000 C   0  0  0  0  0  0  0  0  0  0  0  0
   -1.3106   -3.7908   -0.0000 C   0  0  0  0  0  0  0  0  0  0  0  0
   -2.6818    2.9842   -0.0000 C   0  0  0  0  0  0  0  0  0  0  0  0
   -0.1411    3.0044   -0.0000 C   0  0  0  0  0  0  0  0  0  0  0  0
   -3.9521    0.7864   -0.0000 C   0  0  0  0  0  0  0  0  0  0  0  0
   -0.0202   -4.5167   -0.0000 C   0  0  0  0  0  0  0  0  0  0  0  0
    2.6213   -4.4763   -0.0000 C   0  0  0  0  0  0  0  0  0  0  0  0
   -3.9723    2.2785   -0.0000 C   0  0  0  0  0  0  0  0  0  0  0  0
   -2.7221    4.4965   -0.0000 C   0  0  0  0  0  0  0  0  0  0  0  0
   -0.1613    4.4965   -0.0000 C   0  0  0  0  0  0  0  0  0  0  0  0
    2.3995    3.0044   -0.0000 C   0  0  0  0  0  0  0  0  0  0  0  0
   -5.2426    0.0403   -0.0000 C   0  0  0  0  0  0  0  0  0  0  0  0
   -0.0202   -6.0088   -0.0000 C   0  0  0  0  0  0  0  0  0  0  0  0
    2.6213   -5.9685   -0.0000 C   0  0  0  0  0  0  0  0  0  0  0  0
   -5.2829    3.0044   -0.0000 C   0  0  0  0  0  0  0  0  0  0  0  0
   -4.0126    3.5287   -0.0000 C   0  0  0  0  0  0  0  0  0  0  0  0
   -1.4720    5.2627   -0.0000 C   0  0  0  0  0  0  0  0  0  0  0  0
    1.0888    5.2829   -0.0000 C   0  0  0  0  0  0  0  0  0  0  0  0
   -0.1815    5.7467   -0.0000 C   0  0  0  0  0  0  0  0  0  0  0  0
    2.3793    4.5368   -0.0000 C   0  0  0  0  0  0  0  0  0  0  0  0
   -6.5330    0.8065   -0.0000 C   0  0  0  0  0  0  0  0  0  0  0  0
    1.2905   -6.7347   -0.0000 C   0  0  0  0  0  0  0  0  0  0  0  0
   -6.5532    2.2987   -0.0000 C   0  0  0  0  0  0  0  0  0  0  0  0
    1.0687    6.5330   -0.0000 O   0  0  0  0  0  0  0  0  0  0  0  0
   -7.6219    0.2218   -0.0000 O   0  0  0  0  0  0  0  0  0  0  0  0
  1  2  1  0  0  0  0
  3  1  1  6  0  0  0
  2  4  2  0  0  0  0
  2  5  1  0  0  0  0
  6  3  1  6  0  0  0
  3  7  1  0  0  0  0
  4  8  1  0  0  0  0
  5  9  2  0  0  0  0
  6 10  1  0  0  0  0
  6 11  1  0  0  0  0
  7 12  1  0  0  0  0
  8 13  1  0  0  0  0
  8 14  2  0  0  0  0
 10 15  1  0  0  0  0
 10 16  1  1  0  0  0
 11 17  1  0  0  0  0
 11 18  1  1  0  0  0
 12 19  2  0  0  0  0
 13 20  2  0  0  0  0
 14 21  1  0  0  0  0
 15 22  1  0  0  0  0
 15 23  1  1  0  0  0
 16 24  1  0  0  0  0
 17 25  1  0  0  0  0
 17 26  1  1  0  0  0
 18 27  1  0  0  0  0
 19 28  1  0  0  0  0
 20 29  1  0  0  0  0
 22 30  2  0  0  0  0
 25 31  2  0  0  0  0
 28 32  2  0  0  0  0
  9 13  1  0  0  0  0
 12 15  1  0  0  0  0
 17 24  1  0  0  0  0
 21 29  2  0  0  0  0
 25 27  1  0  0  0  0
 28 30  1  0  0  0  0
M  END
>  <MolRegNo>
2058074

>  <m>
=

>  <Value>
12

>  <Unit>
nM

>  <Type>
Ki

>  <pValue>
7.92

>  <Ligand Efficiency>
0.34

>  <Binding Efficiency>
17.9

>  <Surface Efficiency>
23.2

>  <Assay Index>
985542

>  <Assay Category>


>  <Assay Organism>
Homo sapiens

>  <Target ID>
65

>  <Target Name>
Cytochrome P450 19A1

>  <Target Organism>
Homo sapiens

>  <Target Description>
Target is a single protein chain

>  <Sequence Accession>
P11511

>  <Reference>


>  <Pubmed ID>
26469743

>  <DOI>
10.1016/j.ejmech.2015.09.038

$$$$
2058077
Actelion Java MolfileCreator 1.0

 22 25  0  0  0  0  0  0  0  0999 V2000
    0.0000   -0.0000   -0.0000 S   0  0  0  0  0  0  0  0  0  0  0  0
    1.3060    0.7958   -0.0000 C   0  0  0  0  0  0  0  0  0  0  0  0
   -1.1019    0.6326   -0.0000 C   0  0  0  0  0  0  0  0  0  0  0  0
    1.2856   -0.6734   -0.0000 C   0  0  0  0  0  0  0  0  0  0  0  0
   -0.0204    1.5305   -0.0000 C   0  0  0  0  0  0  0  0  0  0  0  0
    2.5712    1.5509   -0.0000 C   0  0  0  0  0  0  0  0  0  0  0  0
   -0.0204   -1.4284   -0.0000 C   0  0  0  0  0  0  0  0  0  0  0  0
    2.5712   -1.4080   -0.0000 C   0  0  0  0  0  0  0  0  0  0  0  0
   -1.3060    0.8162   -0.0000 C   0  0  0  0  0  0  0  0  0  0  0  0
    3.8364    0.8571   -0.0000 C   0  0  0  0  0  0  0  0  0  0  0  0
    2.5304    3.0813   -0.0000 C   0  0  0  0  0  0  0  0  0  0  0  0
   -1.3264   -0.6530   -0.0000 C   0  0  0  0  0  0  0  0  0  0  0  0
    3.8364   -0.6122   -0.0000 C   0  0  0  0  0  0  0  0  0  0  0  0
    5.1016    1.6121   -0.0000 C   0  0  0  0  0  0  0  0  0  0  0  0
    3.7956    3.8568   -0.0000 C   0  0  0  0  0  0  0  0  0  0  0  0
   -2.4283   -1.2448   -0.0000 O   0  0  0  0  0  0  0  0  0  0  0  0
    5.0811    3.1221   -0.0000 C   0  0  0  0  0  0  0  0  0  0  0  0
    7.6727    1.6121   -0.0000 C   0  0  0  0  0  0  0  0  0  0  0  0
    6.3463    3.9180   -0.0000 C   0  0  0  0  0  0  0  0  0  0  0  0
    5.0607    4.3873   -0.0000 C   0  0  0  0  0  0  0  0  0  0  0  0
    7.6523    3.1630   -0.0000 C   0  0  0  0  0  0  0  0  0  0  0  0
    6.3259    5.1832   -0.0000 O   0  0  0  0  0  0  0  0  0  0  0  0
  2  1  1  6  0  0  0
  1  3  1  0  0  0  0
  2  4  1  0  0  0  0
  2  5  1  0  0  0  0
  2  6  1  0  0  0  0
  4  7  2  0  0  0  0
  4  8  1  0  0  0  0
  5  9  2  0  0  0  0
  6 10  1  0  0  0  0
  6 11  1  6  0  0  0
  7 12  1  0  0  0  0
  8 13  1  0  0  0  0
 10 14  1  0  0  0  0
 11 15  1  0  0  0  0
 12 16  2  0  0  0  0
 14 17  1  0  0  0  0
 14 18  1  6  0  0  0
 17 19  1  0  0  0  0
 17 20  1  6  0  0  0
 18 21  1  0  0  0  0
 19 22  1  6  0  0  0
  9 12  1  0  0  0  0
 10 13  1  1  0  0  0
 15 17  1  0  0  0  0
 19 21  1  0  0  0  0
M  END
>  <MolRegNo>
2058077

>  <m>
=

>  <Value>
610

>  <Unit>
nM

>  <Type>
Ki

>  <pValue>
6.21

>  <Ligand Efficiency>
0.39

>  <Binding Efficiency>
19.51

>  <Surface Efficiency>
16.66

>  <Assay Index>
985545

>  <Assay Category>


>  <Assay Organism>
Homo sapiens

>  <Target ID>
65

>  <Target Name>
Cytochrome P450 19A1

>  <Target Organism>
Homo sapiens

>  <Target Description>
Target is a single protein chain

>  <Sequence Accession>
P11511

>  <Reference>


>  <Pubmed ID>
26469743

>  <DOI>
10.1016/j.ejmech.2015.09.038

$$$$
2058079
Actelion Java MolfileCreator 1.0

 21 24  0  0  0  0  0  0  0  0999 V2000
    0.0000   -0.0000   -0.0000 S   0  0  0  0  0  0  0  0  0  0  0  0
    0.0000   -1.2269   -0.0000 C   0  0  0  0  0  0  0  0  0  0  0  0
   -0.0204   -2.6993   -0.0000 C   0  0  0  0  0  0  0  0  0  0  0  0
    1.2678   -0.4703   -0.0000 C   0  0  0  0  0  0  0  0  0  0  0  0
   -1.3292   -0.4908   -0.0000 C   0  0  0  0  0  0  0  0  0  0  0  0
   -1.3292   -3.4559   -0.0000 C   0  0  0  0  0  0  0  0  0  0  0  0
    1.2678   -3.4355   -0.0000 C   0  0  0  0  0  0  0  0  0  0  0  0
    2.5357   -1.1656   -0.0000 C   0  0  0  0  0  0  0  0  0  0  0  0
    1.2269    1.0634   -0.0000 C   0  0  0  0  0  0  0  0  0  0  0  0
   -2.6175   -1.2065   -0.0000 C   0  0  0  0  0  0  0  0  0  0  0  0
   -2.6379   -2.6788   -0.0000 C   0  0  0  0  0  0  0  0  0  0  0  0
    2.5357   -2.6379   -0.0000 C   0  0  0  0  0  0  0  0  0  0  0  0
    3.8035   -0.4090   -0.0000 C   0  0  0  0  0  0  0  0  0  0  0  0
    2.4948    1.8404   -0.0000 C   0  0  0  0  0  0  0  0  0  0  0  0
   -3.7422   -3.2719   -0.0000 O   0  0  0  0  0  0  0  0  0  0  0  0
    3.7831    1.1043   -0.0000 C   0  0  0  0  0  0  0  0  0  0  0  0
    6.3801   -0.4090   -0.0000 C   0  0  0  0  0  0  0  0  0  0  0  0
    5.0509    1.9018   -0.0000 C   0  0  0  0  0  0  0  0  0  0  0  0
    3.7626    2.3721   -0.0000 C   0  0  0  0  0  0  0  0  0  0  0  0
    6.3597    1.1452   -0.0000 C   0  0  0  0  0  0  0  0  0  0  0  0
    5.0305    3.1696   -0.0000 O   0  0  0  0  0  0  0  0  0  0  0  0
  2  1  1  1  0  0  0
  2  3  1  0  0  0  0
  2  4  1  0  0  0  0
  2  5  1  0  0  0  0
  3  6  2  0  0  0  0
  3  7  1  0  0  0  0
  4  8  1  0  0  0  0
  4  9  1  1  0  0  0
  5 10  1  0  0  0  0
  6 11  1  0  0  0  0
  7 12  1  0  0  0  0
  8 13  1  0  0  0  0
  9 14  1  0  0  0  0
 11 15  2  0  0  0  0
 13 16  1  0  0  0  0
 13 17  1  1  0  0  0
 16 18  1  0  0  0  0
 16 19  1  1  0  0  0
 17 20  1  0  0  0  0
 18 21  1  1  0  0  0
  8 12  1  6  0  0  0
 10 11  1  0  0  0  0
 14 16  1  0  0  0  0
 18 20  1  0  0  0  0
M  END
>  <MolRegNo>
2058079

>  <m>
=

>  <Value>
106

>  <Unit>
nM

>  <Type>
Ki

>  <pValue>
6.97

>  <Ligand Efficiency>
0.45

>  <Binding Efficiency>
22.76

>  <Surface Efficiency>
18.7

>  <Assay Index>
985546

>  <Assay Category>


>  <Assay Organism>
Homo sapiens

>  <Target ID>
65

>  <Target Name>
Cytochrome P450 19A1

>  <Target Organism>
Homo sapiens

>  <Target Description>
Target is a single protein chain

>  <Sequence Accession>
P11511

>  <Reference>


>  <Pubmed ID>
26469743

>  <DOI>
10.1016/j.ejmech.2015.09.038

$$$$
2058082
Actelion Java MolfileCreator 1.0

 23 27  0  0  0  0  0  0  0  0999 V2000
    0.0000   -0.0000   -0.0000 S   0  0  0  0  0  0  0  0  0  0  0  0
   -0.7916    1.1975   -0.0000 C   0  0  0  0  0  0  0  0  0  0  0  0
   -1.5628   -0.0000   -0.0000 C   0  0  0  0  0  0  0  0  0  0  0  0
   -2.1515    1.9688   -0.0000 C   0  0  0  0  0  0  0  0  0  0  0  0
   -2.1718    0.5074   -0.0000 C   0  0  0  0  0  0  0  0  0  0  0  0
   -0.8931    2.7198   -0.0000 C   0  0  0  0  0  0  0  0  0  0  0  0
   -3.4707    2.6995   -0.0000 C   0  0  0  0  0  0  0  0  0  0  0  0
   -3.4707   -0.2436   -0.0000 C   0  0  0  0  0  0  0  0  0  0  0  0
   -0.8931   -0.2233   -0.0000 C   0  0  0  0  0  0  0  0  0  0  0  0
    0.3653    2.0297   -0.0000 C   0  0  0  0  0  0  0  0  0  0  0  0
   -0.9337    4.2420   -0.0000 C   0  0  0  0  0  0  0  0  0  0  0  0
   -4.7494    1.9891   -0.0000 C   0  0  0  0  0  0  0  0  0  0  0  0
   -4.7697    0.5277   -0.0000 C   0  0  0  0  0  0  0  0  0  0  0  0
    0.3653    0.5683   -0.0000 C   0  0  0  0  0  0  0  0  0  0  0  0
    1.6237    2.7807   -0.0000 C   0  0  0  0  0  0  0  0  0  0  0  0
    0.3247    5.0133   -0.0000 C   0  0  0  0  0  0  0  0  0  0  0  0
   -5.8658   -0.0609   -0.0000 O   0  0  0  0  0  0  0  0  0  0  0  0
    1.6034    4.2826   -0.0000 C   0  0  0  0  0  0  0  0  0  0  0  0
    4.1811    2.7807   -0.0000 C   0  0  0  0  0  0  0  0  0  0  0  0
    2.8618    5.0742   -0.0000 C   0  0  0  0  0  0  0  0  0  0  0  0
    1.5831    5.5410   -0.0000 C   0  0  0  0  0  0  0  0  0  0  0  0
    4.1608    4.3232   -0.0000 C   0  0  0  0  0  0  0  0  0  0  0  0
    2.8415    6.3326   -0.0000 O   0  0  0  0  0  0  0  0  0  0  0  0
  2  1  1  1  0  0  0
  1  3  1  0  0  0  0
  4  2  1  1  0  0  0
  4  5  1  0  0  0  0
  4  6  1  0  0  0  0
  4  7  1  0  0  0  0
  5  8  2  0  0  0  0
  5  9  1  0  0  0  0
  6 10  1  0  0  0  0
  6 11  1  1  0  0  0
  7 12  1  0  0  0  0
  8 13  1  0  0  0  0
  9 14  1  0  0  0  0
 10 15  1  0  0  0  0
 11 16  1  0  0  0  0
 13 17  2  0  0  0  0
 15 18  1  0  0  0  0
 15 19  1  1  0  0  0
 18 20  1  0  0  0  0
 18 21  1  1  0  0  0
 19 22  1  0  0  0  0
 20 23  2  0  0  0  0
  2  3  1  0  0  0  0
 10 14  1  6  0  0  0
 12 13  1  0  0  0  0
 16 18  1  0  0  0  0
 20 22  1  0  0  0  0
M  END
>  <MolRegNo>
2058082

>  <m>
=

>  <Value>
2

>  <Unit>
nM

>  <Type>
Ki

>  <pValue>
8.7

>  <Ligand Efficiency>
0.52

>  <Binding Efficiency>
26.32

>  <Surface Efficiency>
25.48

>  <Assay Index>
985548

>  <Assay Category>


>  <Assay Organism>
Homo sapiens

>  <Target ID>
65

>  <Target Name>
Cytochrome P450 19A1

>  <Target Organism>
Homo sapiens

>  <Target Description>
Target is a single protein chain

>  <Sequence Accession>
P11511

>  <Reference>


>  <Pubmed ID>
26469743

>  <DOI>
10.1016/j.ejmech.2015.09.038

$$$$
351595
Actelion Java MolfileCreator 1.0

 21 24  0  0  1  0  0  0  0  0999 V2000
    0.0000   -0.0000   -0.0000 O   0  0  0  0  0  0  0  0  0  0  0  0
    1.2813    0.7593   -0.0000 C   0  0  0  0  0  0  0  0  0  0  0  0
    2.5625    0.0237   -0.0000 C   0  0  0  0  0  0  0  0  0  0  0  0
    1.2694    2.2778   -0.0000 C   0  0  0  0  0  0  0  0  0  0  0  0
    3.8557    0.7830   -0.0000 C   0  0  0  0  0  0  0  0  0  0  0  0
    2.5507    3.0489   -0.0000 C   0  0  0  0  0  0  0  0  0  0  0  0
    3.8557    2.3015   -0.0000 C   0  0  0  0  0  0  0  0  0  0  0  0
    5.1369    0.0356   -0.0000 C   0  0  0  0  0  0  0  0  0  0  0  0
    5.1488    3.0608   -0.0000 C   0  0  0  0  0  0  0  0  0  0  0  0
    3.8319    3.8082   -0.0000 C   0  0  0  0  0  0  0  0  0  0  0  0
    6.4300    0.7949   -0.0000 C   0  0  0  0  0  0  0  0  0  0  0  0
    6.4300    2.3015   -0.0000 C   0  0  0  0  0  0  0  0  0  0  0  0
    5.1488    4.5793   -0.0000 C   0  0  0  0  0  0  0  0  0  0  0  0
    7.7232    3.0608   -0.0000 C   0  0  0  0  0  0  0  0  0  0  0  0
    6.4538    5.3267   -0.0000 C   0  0  0  0  0  0  0  0  0  0  0  0
    7.7232    4.5675   -0.0000 C   0  0  0  0  0  0  0  0  0  0  0  0
    9.1349    2.5981   -0.0000 C   0  0  0  0  0  0  0  0  0  0  0  0
    9.1468    5.0301   -0.0000 C   0  0  0  0  0  0  0  0  0  0  0  0
    7.6994    6.0741   -0.0000 C   0  0  0  0  0  0  0  0  0  0  0  0
   10.0247    3.8082   -0.0000 C   0  0  0  0  0  0  0  0  0  0  0  0
    9.6095    6.4656   -0.0000 O   0  0  0  0  0  0  0  0  0  0  0  0
  1  2  2  0  0  0  0
  2  3  1  0  0  0  0
  2  4  1  0  0  0  0
  3  5  2  0  0  0  0
  4  6  2  0  0  0  0
  5  7  1  0  0  0  0
  5  8  1  0  0  0  0
  7  9  1  0  0  0  0
  7 10  1  1  0  0  0
  8 11  1  0  0  0  0
  9 12  1  0  0  0  0
  9 13  1  1  0  0  0
 12 14  1  0  0  0  0
 13 15  1  0  0  0  0
 14 16  1  0  0  0  0
 14 17  1  1  0  0  0
 16 18  1  0  0  0  0
 16 19  1  1  0  0  0
 17 20  1  0  0  0  0
 18 21  1  1  0  0  0
  6  7  1  0  0  0  0
 12 11  1  6  0  0  0
 15 16  1  0  0  0  0
 18 20  1  0  0  0  0
M  END
>  <MolRegNo>
351595

>  <m>
=

>  <Value>
260

>  <Unit>
nM

>  <Type>
Ki

>  <pValue>
6.58

>  <Ligand Efficiency>
0.43

>  <Binding Efficiency>
22.99

>  <Surface Efficiency>
17.65

>  <Assay Index>
985548

>  <Assay Category>


>  <Assay Organism>
Homo sapiens

>  <Target ID>
65

>  <Target Name>
Cytochrome P450 19A1

>  <Target Organism>
Homo sapiens

>  <Target Description>
Target is a single protein chain

>  <Sequence Accession>
P11511

>  <Reference>


>  <Pubmed ID>
26469743

>  <DOI>
10.1016/j.ejmech.2015.09.038

$$$$
2058115
Actelion Java MolfileCreator 1.0

 20 23  0  0  0  0  0  0  0  0999 V2000
    0.0000   -0.0000   -0.0000 O   0  0  0  0  0  0  0  0  0  0  0  0
    1.0560    0.6295   -0.0000 C   0  0  0  0  0  0  0  0  0  0  0  0
    2.3150   -0.1015   -0.0000 C   0  0  0  0  0  0  0  0  0  0  0  0
    1.0357    2.1323   -0.0000 C   0  0  0  0  0  0  0  0  0  0  0  0
    3.5741    0.6904   -0.0000 C   0  0  0  0  0  0  0  0  0  0  0  0
    2.2744    2.8836   -0.0000 C   0  0  0  0  0  0  0  0  0  0  0  0
    3.5538    2.1932   -0.0000 C   0  0  0  0  0  0  0  0  0  0  0  0
    4.8534   -0.0406   -0.0000 C   0  0  0  0  0  0  0  0  0  0  0  0
    4.8128    2.9445   -0.0000 C   0  0  0  0  0  0  0  0  0  0  0  0
    3.5131    3.4522   -0.0000 C   0  0  0  0  0  0  0  0  0  0  0  0
    6.1125    0.7514   -0.0000 C   0  0  0  0  0  0  0  0  0  0  0  0
    6.0719    2.2541   -0.0000 C   0  0  0  0  0  0  0  0  0  0  0  0
    4.7722    4.4676   -0.0000 C   0  0  0  0  0  0  0  0  0  0  0  0
    7.3309    3.0055   -0.0000 C   0  0  0  0  0  0  0  0  0  0  0  0
    6.0312    5.2393   -0.0000 C   0  0  0  0  0  0  0  0  0  0  0  0
    7.3106    4.5082   -0.0000 C   0  0  0  0  0  0  0  0  0  0  0  0
    9.8896    3.0055   -0.0000 C   0  0  0  0  0  0  0  0  0  0  0  0
    8.5696    5.3002   -0.0000 C   0  0  0  0  0  0  0  0  0  0  0  0
    7.2903    5.7672   -0.0000 C   0  0  0  0  0  0  0  0  0  0  0  0
    9.8693    4.5488   -0.0000 C   0  0  0  0  0  0  0  0  0  0  0  0
  1  2  2  0  0  0  0
  2  3  1  0  0  0  0
  2  4  1  0  0  0  0
  3  5  2  0  0  0  0
  4  6  2  0  0  0  0
  5  7  1  0  0  0  0
  5  8  1  0  0  0  0
  7  9  1  0  0  0  0
  7 10  1  1  0  0  0
  8 11  1  0  0  0  0
  9 12  1  0  0  0  0
  9 13  1  1  0  0  0
 12 14  1  0  0  0  0
 13 15  1  0  0  0  0
 14 16  1  0  0  0  0
 14 17  1  1  0  0  0
 16 18  1  0  0  0  0
 16 19  1  1  0  0  0
 17 20  1  0  0  0  0
  6  7  1  0  0  0  0
 12 11  1  6  0  0  0
 15 16  1  0  0  0  0
 18 20  1  0  0  0  0
M  END
>  <MolRegNo>
2058115

>  <m>
=

>  <Value>
260

>  <Unit>
nM

>  <Type>
Ki

>  <pValue>
6.58

>  <Ligand Efficiency>
0.45

>  <Binding Efficiency>
24.35

>  <Surface Efficiency>
38.58

>  <Assay Index>
985548

>  <Assay Category>


>  <Assay Organism>
Homo sapiens

>  <Target ID>
65

>  <Target Name>
Cytochrome P450 19A1

>  <Target Organism>
Homo sapiens

>  <Target Description>
Target is a single protein chain

>  <Sequence Accession>
P11511

>  <Reference>


>  <Pubmed ID>
26469743

>  <DOI>
10.1016/j.ejmech.2015.09.038

$$$$
2058092
Actelion Java MolfileCreator 1.0

 24 27  0  0  0  0  0  0  0  0999 V2000
    0.0000   -0.0000   -0.0000 O   0  0  0  0  0  0  0  0  0  0  0  0
    1.0593    0.6315   -0.0000 C   0  0  0  0  0  0  0  0  0  0  0  0
    2.3223   -0.1019   -0.0000 C   0  0  0  0  0  0  0  0  0  0  0  0
    1.0389    2.1389   -0.0000 C   0  0  0  0  0  0  0  0  0  0  0  0
    3.5853    0.6926   -0.0000 C   0  0  0  0  0  0  0  0  0  0  0  0
    2.2815    2.8927   -0.0000 C   0  0  0  0  0  0  0  0  0  0  0  0
    3.5649    2.2001   -0.0000 C   0  0  0  0  0  0  0  0  0  0  0  0
    4.8686   -0.0407   -0.0000 C   0  0  0  0  0  0  0  0  0  0  0  0
    4.8279    2.9538   -0.0000 C   0  0  0  0  0  0  0  0  0  0  0  0
    2.2204    1.4463   -0.0000 C   0  0  0  0  0  0  0  0  0  0  0  0
    6.1316    0.7537   -0.0000 C   0  0  0  0  0  0  0  0  0  0  0  0
    6.0909    2.2612   -0.0000 C   0  0  0  0  0  0  0  0  0  0  0  0
    4.7872    4.4816   -0.0000 C   0  0  0  0  0  0  0  0  0  0  0  0
    0.8556    2.2204   -0.0000 N   0  0  0  0  0  0  0  0  0  0  0  0
    7.3539    3.0149   -0.0000 C   0  0  0  0  0  0  0  0  0  0  0  0
    6.0501    5.2557   -0.0000 C   0  0  0  0  0  0  0  0  0  0  0  0
   -0.4889    1.4667   -0.0000 N   0  0  0  0  0  0  0  0  0  0  0  0
    7.3335    4.5223   -0.0000 C   0  0  0  0  0  0  0  0  0  0  0  0
    9.9206    3.0149   -0.0000 C   0  0  0  0  0  0  0  0  0  0  0  0
   -1.5686    0.8556   -0.0000 N   0  0  0  0  0  0  0  0  0  0  0  0
    8.5965    5.3168   -0.0000 C   0  0  0  0  0  0  0  0  0  0  0  0
    7.3131    5.7853   -0.0000 C   0  0  0  0  0  0  0  0  0  0  0  0
    9.9002    4.5631   -0.0000 C   0  0  0  0  0  0  0  0  0  0  0  0
    8.5761    6.5798   -0.0000 O   0  0  0  0  0  0  0  0  0  0  0  0
  1  2  2  0  0  0  0
  2  3  1  0  0  0  0
  2  4  1  0  0  0  0
  3  5  2  0  0  0  0
  4  6  1  0  0  0  0
  5  7  1  0  0  0  0
  5  8  1  0  0  0  0
  7  9  1  0  0  0  0
  7 10  1  6  0  0  0
  8 11  1  0  0  0  0
  9 12  1  0  0  0  0
  9 13  1  6  0  0  0
 10 14  1  0  0  0  0
 12 15  1  0  0  0  0
 13 16  1  0  0  0  0
 14 17  2  0  0  0  0
 15 18  1  0  0  0  0
 15 19  1  6  0  0  0
 17 20  2  0  0  0  0
 18 21  1  0  0  0  0
 18 22  1  6  0  0  0
 19 23  1  0  0  0  0
 21 24  2  0  0  0  0
  6  7  1  0  0  0  0
 12 11  1  1  0  0  0
 16 18  1  0  0  0  0
 21 23  1  0  0  0  0
M  CHG  2  17   1  20  -1
M  END
>  <MolRegNo>
2058092

>  <m>
=

>  <Value>
5

>  <Unit>
nM

>  <Type>
Ki

>  <pValue>
8.3

>  <Ligand Efficiency>
0.47

>  <Binding Efficiency>
25.35

>  <Surface Efficiency>
10.01

>  <Assay Index>
985549

>  <Assay Category>


>  <Assay Organism>
Homo sapiens

>  <Target ID>
65

>  <Target Name>
Cytochrome P450 19A1

>  <Target Organism>
Homo sapiens

>  <Target Description>
Target is a single protein chain

>  <Sequence Accession>
P11511

>  <Reference>


>  <Pubmed ID>
26469743

>  <DOI>
10.1016/j.ejmech.2015.09.038

$$$$
2058093
Actelion Java MolfileCreator 1.0

 23 26  0  0  0  0  0  0  0  0999 V2000
    0.0000   -0.0000   -0.0000 S   0  0  0  0  0  0  0  0  0  0  0  0
    1.3268   -0.7348   -0.0000 C   0  0  0  0  0  0  0  0  0  0  0  0
   -1.0819   -0.6124   -0.0000 C   0  0  0  0  0  0  0  0  0  0  0  0
    2.6332    0.0612   -0.0000 C   0  0  0  0  0  0  0  0  0  0  0  0
    2.6128   -1.4084   -0.0000 C   0  0  0  0  0  0  0  0  0  0  0  0
    3.8987    0.8165   -0.0000 C   0  0  0  0  0  0  0  0  0  0  0  0
    1.3064    0.7961   -0.0000 C   0  0  0  0  0  0  0  0  0  0  0  0
    1.3064   -2.1637   -0.0000 C   0  0  0  0  0  0  0  0  0  0  0  0
    3.8987   -2.1433   -0.0000 C   0  0  0  0  0  0  0  0  0  0  0  0
    5.1643    0.1225   -0.0000 C   0  0  0  0  0  0  0  0  0  0  0  0
    3.8579    2.3474   -0.0000 C   0  0  0  0  0  0  0  0  0  0  0  0
    0.0204    0.0816   -0.0000 C   0  0  0  0  0  0  0  0  0  0  0  0
    0.0000   -1.3880   -0.0000 C   0  0  0  0  0  0  0  0  0  0  0  0
    5.1643   -1.3472   -0.0000 C   0  0  0  0  0  0  0  0  0  0  0  0
    6.4299    0.8777   -0.0000 C   0  0  0  0  0  0  0  0  0  0  0  0
    5.1235    3.1231   -0.0000 C   0  0  0  0  0  0  0  0  0  0  0  0
   -1.1023   -1.9800   -0.0000 O   0  0  0  0  0  0  0  0  0  0  0  0
    6.4095    2.3882   -0.0000 C   0  0  0  0  0  0  0  0  0  0  0  0
    9.0018    0.8777   -0.0000 C   0  0  0  0  0  0  0  0  0  0  0  0
    7.6750    3.1843   -0.0000 C   0  0  0  0  0  0  0  0  0  0  0  0
    6.3890    3.6538   -0.0000 C   0  0  0  0  0  0  0  0  0  0  0  0
    8.9814    2.4291   -0.0000 C   0  0  0  0  0  0  0  0  0  0  0  0
    7.6546    4.4499   -0.0000 O   0  0  0  0  0  0  0  0  0  0  0  0
  1  2  1  0  0  0  0
  1  3  1  0  0  0  0
  4  2  1  6  0  0  0
  4  5  1  0  0  0  0
  4  6  1  0  0  0  0
  4  7  1  0  0  0  0
  5  8  2  0  0  0  0
  5  9  1  0  0  0  0
  6 10  1  0  0  0  0
  6 11  1  6  0  0  0
  7 12  1  0  0  0  0
  8 13  1  0  0  0  0
  9 14  1  0  0  0  0
 10 15  1  0  0  0  0
 11 16  1  0  0  0  0
 13 17  2  0  0  0  0
 15 18  1  0  0  0  0
 15 19  1  6  0  0  0
 18 20  1  0  0  0  0
 18 21  1  6  0  0  0
 19 22  1  0  0  0  0
 20 23  2  0  0  0  0
 10 14  1  1  0  0  0
 12 13  1  0  0  0  0
 16 18  1  0  0  0  0
 20 22  1  0  0  0  0
M  END
>  <MolRegNo>
2058093

>  <m>
=

>  <Value>
1

>  <Unit>
nM

>  <Type>
Ki

>  <pValue>
9

>  <Ligand Efficiency>
0.53

>  <Binding Efficiency>
27.07

>  <Surface Efficiency>
26.36

>  <Assay Index>
985549

>  <Assay Category>


>  <Assay Organism>
Homo sapiens

>  <Target ID>
65

>  <Target Name>
Cytochrome P450 19A1

>  <Target Organism>
Homo sapiens

>  <Target Description>
Target is a single protein chain

>  <Sequence Accession>
P11511

>  <Reference>


>  <Pubmed ID>
26469743

>  <DOI>
10.1016/j.ejmech.2015.09.038

$$$$
2058223
Actelion Java MolfileCreator 1.0

 22 26  0  0  0  0  0  0  0  0999 V2000
    0.0000   -0.0000   -0.0000 O   0  0  0  0  0  0  0  0  0  0  0  0
    1.0479    0.6016   -0.0000 C   0  0  0  0  0  0  0  0  0  0  0  0
    2.3286   -0.2135   -0.0000 C   0  0  0  0  0  0  0  0  0  0  0  0
    1.0285    2.3092   -0.0000 C   0  0  0  0  0  0  0  0  0  0  0  0
    3.6094    0.6792   -0.0000 C   0  0  0  0  0  0  0  0  0  0  0  0
    2.2898    3.0854   -0.0000 C   0  0  0  0  0  0  0  0  0  0  0  0
    1.7077    1.3002   -0.0000 C   0  0  0  0  0  0  0  0  0  0  0  0
    3.5900    2.3092   -0.0000 C   0  0  0  0  0  0  0  0  0  0  0  0
    4.8125   -0.1746   -0.0000 C   0  0  0  0  0  0  0  0  0  0  0  0
    2.9108    1.3196   -0.0000 C   0  0  0  0  0  0  0  0  0  0  0  0
    4.7931    3.1631   -0.0000 C   0  0  0  0  0  0  0  0  0  0  0  0
    6.0156    0.7180   -0.0000 C   0  0  0  0  0  0  0  0  0  0  0  0
    5.9962    2.3480   -0.0000 C   0  0  0  0  0  0  0  0  0  0  0  0
    4.7737    4.8125   -0.0000 C   0  0  0  0  0  0  0  0  0  0  0  0
    7.1800    3.2019   -0.0000 C   0  0  0  0  0  0  0  0  0  0  0  0
    5.9768    5.6858   -0.0000 C   0  0  0  0  0  0  0  0  0  0  0  0
    7.1606    4.8513   -0.0000 C   0  0  0  0  0  0  0  0  0  0  0  0
    9.6250    3.2213   -0.0000 C   0  0  0  0  0  0  0  0  0  0  0  0
    8.3831    5.7246   -0.0000 C   0  0  0  0  0  0  0  0  0  0  0  0
    7.1412    6.0739   -0.0000 C   0  0  0  0  0  0  0  0  0  0  0  0
    9.6056    4.8707   -0.0000 C   0  0  0  0  0  0  0  0  0  0  0  0
    8.3637    6.9471   -0.0000 O   0  0  0  0  0  0  0  0  0  0  0  0
  1  2  2  0  0  0  0
  2  3  1  0  0  0  0
  2  4  1  0  0  0  0
  3  5  2  0  0  0  0
  4  6  1  1  0  0  0
  4  7  1  0  0  0  0
  5  8  1  0  0  0  0
  5  9  1  0  0  0  0
  7 10  1  0  0  0  0
  8 11  1  0  0  0  0
  9 12  1  0  0  0  0
 11 13  1  0  0  0  0
 11 14  1  6  0  0  0
 13 15  1  0  0  0  0
 14 16  1  0  0  0  0
 15 17  1  0  0  0  0
 15 18  1  6  0  0  0
 17 19  1  0  0  0  0
 17 20  1  6  0  0  0
 18 21  1  0  0  0  0
 19 22  2  0  0  0  0
  8  6  1  1  0  0  0
  8 10  1  0  0  0  0
 13 12  1  1  0  0  0
 16 17  1  0  0  0  0
 19 21  1  0  0  0  0
M  END
>  <MolRegNo>
2058223

>  <m>
=

>  <Value>
10000

>  <Unit>
nM

>  <Type>
Ki

>  <pValue>
5

>  <Ligand Efficiency>
0.31

>  <Binding Efficiency>
16.75

>  <Surface Efficiency>
14.65

>  <Assay Index>
985549

>  <Assay Category>


>  <Assay Organism>
Homo sapiens

>  <Target ID>
65

>  <Target Name>
Cytochrome P450 19A1

>  <Target Organism>
Homo sapiens

>  <Target Description>
Target is a single protein chain

>  <Sequence Accession>
P11511

>  <Reference>


>  <Pubmed ID>
26469743

>  <DOI>
10.1016/j.ejmech.2015.09.038

$$$$
2058224
Actelion Java MolfileCreator 1.0

 24 28  0  0  0  0  0  0  0  0999 V2000
    0.0000   -0.0000   -0.0000 O   0  0  0  0  0  0  0  0  0  0  0  0
    0.3651    1.1925   -0.0000 C   0  0  0  0  0  0  0  0  0  0  0  0
    1.8131    1.6793   -0.0000 C   0  0  0  0  0  0  0  0  0  0  0  0
   -0.5598    2.4580   -0.0000 C   0  0  0  0  0  0  0  0  0  0  0  0
    1.8009    3.2368   -0.0000 C   0  0  0  0  0  0  0  0  0  0  0  0
    3.1395    0.9126   -0.0000 C   0  0  0  0  0  0  0  0  0  0  0  0
    1.6793    0.4624   -0.0000 C   0  0  0  0  0  0  0  0  0  0  0  0
    0.3407    3.7236   -0.0000 C   0  0  0  0  0  0  0  0  0  0  0  0
    3.1273    4.0156   -0.0000 C   0  0  0  0  0  0  0  0  0  0  0  0
    4.4658    1.6914   -0.0000 C   0  0  0  0  0  0  0  0  0  0  0  0
    4.4537    3.2490   -0.0000 C   0  0  0  0  0  0  0  0  0  0  0  0
    3.1151    5.5732   -0.0000 C   0  0  0  0  0  0  0  0  0  0  0  0
    5.7800    4.0278   -0.0000 C   0  0  0  0  0  0  0  0  0  0  0  0
    4.4415    6.3520   -0.0000 C   0  0  0  0  0  0  0  0  0  0  0  0
    5.7679    5.5853   -0.0000 C   0  0  0  0  0  0  0  0  0  0  0  0
    5.7679    5.5853   -0.0000 C   0  0  0  0  0  0  0  0  0  0  0  0
    7.1064    3.2612   -0.0000 C   0  0  0  0  0  0  0  0  0  0  0  0
    7.0942    6.3641   -0.0000 C   0  0  0  0  0  0  0  0  0  0  0  0
    7.0942    6.3641   -0.0000 O   0  0  0  0  0  0  0  0  0  0  0  0
    4.7701    6.7900   -0.0000 C   0  0  0  0  0  0  0  0  0  0  0  0
    8.4328    4.0399   -0.0000 C   0  0  0  0  0  0  0  0  0  0  0  0
    8.4206    5.5975   -0.0000 C   0  0  0  0  0  0  0  0  0  0  0  0
    5.1838    7.9582   -0.0000 C   0  0  0  0  0  0  0  0  0  0  0  0
    9.4793    6.2303   -0.0000 O   0  0  0  0  0  0  0  0  0  0  0  0
  1  2  2  0  0  0  0
  2  3  1  0  0  0  0
  2  4  1  0  0  0  0
  3  5  1  0  0  0  0
  3  6  1  0  0  0  0
  3  7  1  6  0  0  0
  4  8  1  0  0  0  0
  5  9  1  0  0  0  0
  6 10  1  0  0  0  0
  9 11  1  0  0  0  0
  9 12  1  1  0  0  0
 11 13  1  0  0  0  0
 12 14  1  0  0  0  0
 13 15  1  1  0  0  0
 13 16  1  0  0  0  0
 13 17  1  0  0  0  0
 15 18  1  0  0  0  0
 16 19  1  0  0  0  0
 16 20  1  0  0  0  0
 17 21  1  0  0  0  0
 22 18  1  6  0  0  0
 20 23  2  0  0  0  0
 22 24  1  0  0  0  0
  5  8  1  6  0  0  0
 11 10  1  6  0  0  0
 14 15  2  0  0  0  0
 19 22  1  0  0  0  0
 21 22  1  0  0  0  0
M  END
>  <MolRegNo>
2058224

>  <m>
=

>  <Value>
10000

>  <Unit>
nM

>  <Type>
Ki

>  <pValue>
5

>  <Ligand Efficiency>
0.28

>  <Binding Efficiency>
15.22

>  <Surface Efficiency>
10.75

>  <Assay Index>
985549

>  <Assay Category>


>  <Assay Organism>
Homo sapiens

>  <Target ID>
65

>  <Target Name>
Cytochrome P450 19A1

>  <Target Organism>
Homo sapiens

>  <Target Description>
Target is a single protein chain

>  <Sequence Accession>
P11511

>  <Reference>


>  <Pubmed ID>
26469743

>  <DOI>
10.1016/j.ejmech.2015.09.038

$$$$
2058225
Actelion Java MolfileCreator 1.0

 23 27  0  0  0  0  0  0  0  0999 V2000
    0.0000   -0.0000   -0.0000 S   0  0  0  0  0  0  0  0  0  0  0  0
    1.8395    1.5858   -0.0000 C   0  0  0  0  0  0  0  0  0  0  0  0
   -0.0211   -2.6642   -0.0000 C   0  0  0  0  0  0  0  0  0  0  0  0
    1.8184    0.5497   -0.0000 C   0  0  0  0  0  0  0  0  0  0  0  0
    0.5709   -1.5224   -0.0000 C   0  0  0  0  0  0  0  0  0  0  0  0
    1.7973   -0.8035   -0.0000 C   0  0  0  0  0  0  0  0  0  0  0  0
    3.0448    1.2898   -0.0000 C   0  0  0  0  0  0  0  0  0  0  0  0
    0.5497    1.2898   -0.0000 C   0  0  0  0  0  0  0  0  0  0  0  0
   -0.6978   -0.7823   -0.0000 C   0  0  0  0  0  0  0  0  0  0  0  0
    3.0236   -1.4801   -0.0000 C   0  0  0  0  0  0  0  0  0  0  0  0
    4.2077    0.6343   -0.0000 C   0  0  0  0  0  0  0  0  0  0  0  0
    3.0236    2.7487   -0.0000 C   0  0  0  0  0  0  0  0  0  0  0  0
   -0.7189    0.6343   -0.0000 C   0  0  0  0  0  0  0  0  0  0  0  0
   -1.7761   -1.3744   -0.0000 O   0  0  0  0  0  0  0  0  0  0  0  0
    4.1865   -0.7400   -0.0000 C   0  0  0  0  0  0  0  0  0  0  0  0
    5.4341    1.3321   -0.0000 C   0  0  0  0  0  0  0  0  0  0  0  0
    4.1865    3.4676   -0.0000 C   0  0  0  0  0  0  0  0  0  0  0  0
    5.4129    2.7910   -0.0000 C   0  0  0  0  0  0  0  0  0  0  0  0
    7.9079    1.3532   -0.0000 C   0  0  0  0  0  0  0  0  0  0  0  0
    6.6393    3.5099   -0.0000 C   0  0  0  0  0  0  0  0  0  0  0  0
    5.3918    4.0385   -0.0000 C   0  0  0  0  0  0  0  0  0  0  0  0
    7.8868    2.8122   -0.0000 C   0  0  0  0  0  0  0  0  0  0  0  0
    6.6181    4.7574   -0.0000 O   0  0  0  0  0  0  0  0  0  0  0  0
  1  2  1  0  0  0  0
  1  3  1  0  0  0  0
  4  2  1  1  0  0  0
  5  3  1  1  0  0  0
  4  6  1  0  0  0  0
  4  7  1  0  0  0  0
  4  8  1  0  0  0  0
  5  9  1  0  0  0  0
  6 10  2  0  0  0  0
  7 11  1  0  0  0  0
  7 12  1  1  0  0  0
  8 13  1  0  0  0  0
  9 14  2  0  0  0  0
 10 15  1  0  0  0  0
 11 16  1  0  0  0  0
 12 17  1  0  0  0  0
 16 18  1  0  0  0  0
 16 19  1  1  0  0  0
 18 20  1  0  0  0  0
 18 21  1  1  0  0  0
 19 22  1  0  0  0  0
 20 23  2  0  0  0  0
  5  6  1  0  0  0  0
  9 13  1  0  0  0  0
 11 15  1  6  0  0  0
 17 18  1  0  0  0  0
 20 22  1  0  0  0  0
M  END
>  <MolRegNo>
2058225

>  <m>
=

>  <Value>
10000

>  <Unit>
nM

>  <Type>
Ki

>  <pValue>
5

>  <Ligand Efficiency>
0.3

>  <Binding Efficiency>
15.13

>  <Surface Efficiency>
14.65

>  <Assay Index>
985549

>  <Assay Category>


>  <Assay Organism>
Homo sapiens

>  <Target ID>
65

>  <Target Name>
Cytochrome P450 19A1

>  <Target Organism>
Homo sapiens

>  <Target Description>
Target is a single protein chain

>  <Sequence Accession>
P11511

>  <Reference>


>  <Pubmed ID>
26469743

>  <DOI>
10.1016/j.ejmech.2015.09.038

$$$$
2717278
Actelion Java MolfileCreator 1.0

 23 27  0  0  0  0  0  0  0  0999 V2000
    0.0000   -0.0000   -0.0000 O   0  0  0  0  0  0  0  0  0  0  0  0
    1.2805    0.7655   -0.0000 C   0  0  0  0  0  0  0  0  0  0  0  0
    2.5610    0.0278   -0.0000 C   0  0  0  0  0  0  0  0  0  0  0  0
    1.2666    2.2687   -0.0000 C   0  0  0  0  0  0  0  0  0  0  0  0
    3.8415    0.7934   -0.0000 C   0  0  0  0  0  0  0  0  0  0  0  0
    2.5471    3.0342   -0.0000 C   0  0  0  0  0  0  0  0  0  0  0  0
    3.8276    2.2966   -0.0000 C   0  0  0  0  0  0  0  0  0  0  0  0
    5.1220    0.0557   -0.0000 C   0  0  0  0  0  0  0  0  0  0  0  0
    5.1081    3.0621   -0.0000 C   0  0  0  0  0  0  0  0  0  0  0  0
    4.2034    3.6884   -0.0000 C   0  0  0  0  0  0  0  0  0  0  0  0
    5.9571    1.4336   -0.0000 C   0  0  0  0  0  0  0  0  0  0  0  0
    6.4025    0.8212   -0.0000 C   0  0  0  0  0  0  0  0  0  0  0  0
    6.3886    2.3244   -0.0000 C   0  0  0  0  0  0  0  0  0  0  0  0
    5.0942    4.5653   -0.0000 C   0  0  0  0  0  0  0  0  0  0  0  0
    4.7462    1.9347   -0.0000 O   0  0  0  0  0  0  0  0  0  0  0  0
    7.6691    3.0899   -0.0000 C   0  0  0  0  0  0  0  0  0  0  0  0
    6.3747    5.3308   -0.0000 C   0  0  0  0  0  0  0  0  0  0  0  0
    7.6552    4.5931   -0.0000 C   0  0  0  0  0  0  0  0  0  0  0  0
    9.0749    2.6445   -0.0000 C   0  0  0  0  0  0  0  0  0  0  0  0
    9.0610    5.0663   -0.0000 C   0  0  0  0  0  0  0  0  0  0  0  0
    7.6413    6.0963   -0.0000 C   0  0  0  0  0  0  0  0  0  0  0  0
    9.9378    3.8694   -0.0000 C   0  0  0  0  0  0  0  0  0  0  0  0
    9.4368    6.5278   -0.0000 O   0  0  0  0  0  0  0  0  0  0  0  0
  1  2  2  0  0  0  0
  2  3  1  0  0  0  0
  2  4  1  0  0  0  0
  3  5  2  0  0  0  0
  4  6  1  0  0  0  0
  5  7  1  0  0  0  0
  5  8  1  0  0  0  0
  7  9  1  0  0  0  0
  7 10  1  1  0  0  0
  8 11  1  1  0  0  0
  8 12  1  0  0  0  0
  9 13  1  0  0  0  0
  9 14  1  0  0  0  0
 10 15  1  0  0  0  0
 13 16  1  0  0  0  0
 14 17  1  0  0  0  0
 16 18  1  0  0  0  0
 16 19  1  0  0  0  0
 18 20  1  0  0  0  0
 18 21  1  1  0  0  0
 19 22  1  0  0  0  0
 20 23  2  0  0  0  0
  6  7  1  0  0  0  0
 11 15  1  0  0  0  0
 12 13  1  0  0  0  0
 17 18  1  0  0  0  0
 20 22  1  0  0  0  0
M  END
>  <MolRegNo>
2717278

>  <m>
=

>  <Value>
10000

>  <Unit>
nM

>  <Type>
Ki

>  <pValue>
5

>  <Ligand Efficiency>
0.3

>  <Binding Efficiency>
15.9

>  <Surface Efficiency>
11.53

>  <Assay Index>
985549

>  <Assay Category>


>  <Assay Organism>
Homo sapiens

>  <Target ID>
65

>  <Target Name>
Cytochrome P450 19A1

>  <Target Organism>
Homo sapiens

>  <Target Description>
Target is a single protein chain

>  <Sequence Accession>
P11511

>  <Reference>


>  <Pubmed ID>
26469743

>  <DOI>
10.1016/j.ejmech.2015.09.038

$$$$
2058088
Actelion Java MolfileCreator 1.0

 23 26  0  0  0  0  0  0  0  0999 V2000
    0.0000   -0.0000   -0.0000 F   0  0  0  0  0  0  0  0  0  0  0  0
   -0.0205    1.2728   -0.0000 C   0  0  0  0  0  0  0  0  0  0  0  0
   -1.1291    1.9093   -0.0000 F   0  0  0  0  0  0  0  0  0  0  0  0
    1.2934    2.0735   -0.0000 C   0  0  0  0  0  0  0  0  0  0  0  0
    1.2728    0.5954   -0.0000 C   0  0  0  0  0  0  0  0  0  0  0  0
    2.5662    2.8331   -0.0000 C   0  0  0  0  0  0  0  0  0  0  0  0
   -0.0411    2.8126   -0.0000 C   0  0  0  0  0  0  0  0  0  0  0  0
   -0.0411   -0.1642   -0.0000 C   0  0  0  0  0  0  0  0  0  0  0  0
    2.5662   -0.1437   -0.0000 C   0  0  0  0  0  0  0  0  0  0  0  0
    3.8391    2.1351   -0.0000 C   0  0  0  0  0  0  0  0  0  0  0  0
    2.5252    4.3728   -0.0000 C   0  0  0  0  0  0  0  0  0  0  0  0
   -1.3344    2.0940   -0.0000 C   0  0  0  0  0  0  0  0  0  0  0  0
   -1.3550    0.6159   -0.0000 C   0  0  0  0  0  0  0  0  0  0  0  0
    3.8391    0.6570   -0.0000 C   0  0  0  0  0  0  0  0  0  0  0  0
    5.1119    2.8947   -0.0000 C   0  0  0  0  0  0  0  0  0  0  0  0
    3.7980    5.1530   -0.0000 C   0  0  0  0  0  0  0  0  0  0  0  0
   -2.4636    0.0205   -0.0000 O   0  0  0  0  0  0  0  0  0  0  0  0
    5.0914    4.4139   -0.0000 C   0  0  0  0  0  0  0  0  0  0  0  0
    7.6986    2.8947   -0.0000 C   0  0  0  0  0  0  0  0  0  0  0  0
    6.3642    5.2146   -0.0000 C   0  0  0  0  0  0  0  0  0  0  0  0
    5.0708    5.6867   -0.0000 C   0  0  0  0  0  0  0  0  0  0  0  0
    7.6781    4.4550   -0.0000 C   0  0  0  0  0  0  0  0  0  0  0  0
    6.3437    6.4874   -0.0000 O   0  0  0  0  0  0  0  0  0  0  0  0
  1  2  1  0  0  0  0
  2  3  1  0  0  0  0
  4  2  1  1  0  0  0
  4  5  1  0  0  0  0
  4  6  1  0  0  0  0
  4  7  1  0  0  0  0
  5  8  2  0  0  0  0
  5  9  1  0  0  0  0
  6 10  1  0  0  0  0
  6 11  1  1  0  0  0
  7 12  1  0  0  0  0
  8 13  1  0  0  0  0
  9 14  1  0  0  0  0
 10 15  1  0  0  0  0
 11 16  1  0  0  0  0
 13 17  2  0  0  0  0
 15 18  1  0  0  0  0
 15 19  1  1  0  0  0
 18 20  1  0  0  0  0
 18 21  1  1  0  0  0
 19 22  1  0  0  0  0
 20 23  2  0  0  0  0
 10 14  1  6  0  0  0
 12 13  1  0  0  0  0
 16 18  1  0  0  0  0
 20 22  1  0  0  0  0
M  END
>  <MolRegNo>
2058088

>  <m>
=

>  <Value>
1000

>  <Unit>
nM

>  <Type>
Ki

>  <pValue>
6

>  <Ligand Efficiency>
0.36

>  <Binding Efficiency>
18.61

>  <Surface Efficiency>
17.57

>  <Assay Index>
985550

>  <Assay Category>


>  <Assay Organism>
Homo sapiens

>  <Target ID>
65

>  <Target Name>
Cytochrome P450 19A1

>  <Target Organism>
Homo sapiens

>  <Target Description>
Target is a single protein chain

>  <Sequence Accession>
P11511

>  <Reference>


>  <Pubmed ID>
26469743

>  <DOI>
10.1016/j.ejmech.2015.09.038

$$$$
2058089
Actelion Java MolfileCreator 1.0

 22 25  0  0  0  0  0  0  0  0999 V2000
    0.0000   -0.0000   -0.0000 S   0  0  0  0  0  0  0  0  0  0  0  0
    1.0627   -0.5927   -0.0000 C   0  0  0  0  0  0  0  0  0  0  0  0
    2.3706    0.2044   -0.0000 C   0  0  0  0  0  0  0  0  0  0  0  0
    2.3502   -1.2671   -0.0000 C   0  0  0  0  0  0  0  0  0  0  0  0
    3.6377    0.9605   -0.0000 C   0  0  0  0  0  0  0  0  0  0  0  0
    1.0423    0.9401   -0.0000 C   0  0  0  0  0  0  0  0  0  0  0  0
    1.0423   -2.0232   -0.0000 C   0  0  0  0  0  0  0  0  0  0  0  0
    3.6377   -2.0028   -0.0000 C   0  0  0  0  0  0  0  0  0  0  0  0
    4.9048    0.2657   -0.0000 C   0  0  0  0  0  0  0  0  0  0  0  0
    3.5968    2.4933   -0.0000 C   0  0  0  0  0  0  0  0  0  0  0  0
   -0.2452    0.2248   -0.0000 C   0  0  0  0  0  0  0  0  0  0  0  0
   -0.2657   -1.2466   -0.0000 C   0  0  0  0  0  0  0  0  0  0  0  0
    4.9048   -1.2058   -0.0000 C   0  0  0  0  0  0  0  0  0  0  0  0
    6.1718    1.0218   -0.0000 C   0  0  0  0  0  0  0  0  0  0  0  0
    4.8639    3.2698   -0.0000 C   0  0  0  0  0  0  0  0  0  0  0  0
   -1.3692   -1.8393   -0.0000 O   0  0  0  0  0  0  0  0  0  0  0  0
    6.1514    2.5341   -0.0000 C   0  0  0  0  0  0  0  0  0  0  0  0
    8.7468    1.0218   -0.0000 C   0  0  0  0  0  0  0  0  0  0  0  0
    7.4185    3.3312   -0.0000 C   0  0  0  0  0  0  0  0  0  0  0  0
    6.1310    3.8012   -0.0000 C   0  0  0  0  0  0  0  0  0  0  0  0
    8.7264    2.5750   -0.0000 C   0  0  0  0  0  0  0  0  0  0  0  0
    7.3980    4.5982   -0.0000 O   0  0  0  0  0  0  0  0  0  0  0  0
  1  2  1  0  0  0  0
  3  2  1  6  0  0  0
  3  4  1  0  0  0  0
  3  5  1  0  0  0  0
  3  6  1  0  0  0  0
  4  7  2  0  0  0  0
  4  8  1  0  0  0  0
  5  9  1  0  0  0  0
  5 10  1  6  0  0  0
  6 11  1  0  0  0  0
  7 12  1  0  0  0  0
  8 13  1  0  0  0  0
  9 14  1  0  0  0  0
 10 15  1  0  0  0  0
 12 16  2  0  0  0  0
 14 17  1  0  0  0  0
 14 18  1  6  0  0  0
 17 19  1  0  0  0  0
 17 20  1  6  0  0  0
 18 21  1  0  0  0  0
 19 22  2  0  0  0  0
  9 13  1  1  0  0  0
 11 12  1  0  0  0  0
 15 17  1  0  0  0  0
 19 21  1  0  0  0  0
M  END
>  <MolRegNo>
2058089

>  <m>
=

>  <Value>
34

>  <Unit>
nM

>  <Type>
Ki

>  <pValue>
7.47

>  <Ligand Efficiency>
0.46

>  <Binding Efficiency>
23.45

>  <Surface Efficiency>
21.88

>  <Assay Index>
985551

>  <Assay Category>


>  <Assay Organism>
Homo sapiens

>  <Target ID>
65

>  <Target Name>
Cytochrome P450 19A1

>  <Target Organism>
Homo sapiens

>  <Target Description>
Target is a single protein chain

>  <Sequence Accession>
P11511

>  <Reference>


>  <Pubmed ID>
26469743

>  <DOI>
10.1016/j.ejmech.2015.09.038

$$$$
2058220
Actelion Java MolfileCreator 1.0

 23 27  0  0  0  0  0  0  0  0999 V2000
    0.0000   -0.0000   -0.0000 O   0  0  0  0  0  0  0  0  0  0  0  0
    1.0560    0.6062   -0.0000 C   0  0  0  0  0  0  0  0  0  0  0  0
    2.3466   -0.2151   -0.0000 C   0  0  0  0  0  0  0  0  0  0  0  0
    1.0364    2.3271   -0.0000 C   0  0  0  0  0  0  0  0  0  0  0  0
    3.6373    0.6844   -0.0000 C   0  0  0  0  0  0  0  0  0  0  0  0
    2.3075    3.1093   -0.0000 C   0  0  0  0  0  0  0  0  0  0  0  0
    1.7209    1.3102   -0.0000 C   0  0  0  0  0  0  0  0  0  0  0  0
    3.6177    2.3271   -0.0000 C   0  0  0  0  0  0  0  0  0  0  0  0
    4.8497   -0.1760   -0.0000 C   0  0  0  0  0  0  0  0  0  0  0  0
    2.9333    1.3298   -0.0000 C   0  0  0  0  0  0  0  0  0  0  0  0
    4.8302    3.1875   -0.0000 C   0  0  0  0  0  0  0  0  0  0  0  0
    6.0621    0.7235   -0.0000 C   0  0  0  0  0  0  0  0  0  0  0  0
    3.5004    0.2738   -0.0000 O   0  0  0  0  0  0  0  0  0  0  0  0
    6.0426    2.3662   -0.0000 C   0  0  0  0  0  0  0  0  0  0  0  0
    4.8106    4.8497   -0.0000 C   0  0  0  0  0  0  0  0  0  0  0  0
    7.2355    3.2266   -0.0000 C   0  0  0  0  0  0  0  0  0  0  0  0
    6.0230    5.7297   -0.0000 C   0  0  0  0  0  0  0  0  0  0  0  0
    7.2159    4.8888   -0.0000 C   0  0  0  0  0  0  0  0  0  0  0  0
    9.6994    3.2462   -0.0000 C   0  0  0  0  0  0  0  0  0  0  0  0
    8.4479    5.7688   -0.0000 C   0  0  0  0  0  0  0  0  0  0  0  0
    7.1963    6.1208   -0.0000 C   0  0  0  0  0  0  0  0  0  0  0  0
    9.6799    4.9084   -0.0000 C   0  0  0  0  0  0  0  0  0  0  0  0
    8.4283    7.0008   -0.0000 O   0  0  0  0  0  0  0  0  0  0  0  0
  1  2  2  0  0  0  0
  2  3  1  0  0  0  0
  2  4  1  0  0  0  0
  3  5  2  0  0  0  0
  4  6  1  6  0  0  0
  4  7  1  0  0  0  0
  5  8  1  0  0  0  0
  5  9  1  0  0  0  0
  7 10  1  0  0  0  0
  8 11  1  0  0  0  0
  9 12  1  0  0  0  0
 10 13  1  1  0  0  0
 11 14  1  0  0  0  0
 11 15  1  1  0  0  0
 14 16  1  0  0  0  0
 15 17  1  0  0  0  0
 16 18  1  0  0  0  0
 16 19  1  1  0  0  0
 18 20  1  0  0  0  0
 18 21  1  1  0  0  0
 19 22  1  0  0  0  0
 20 23  2  0  0  0  0
  8  6  1  6  0  0  0
  8 10  1  0  0  0  0
 14 12  1  6  0  0  0
 17 18  1  0  0  0  0
 20 22  1  0  0  0  0
M  END
>  <MolRegNo>
2058220

>  <m>
=

>  <Value>
926

>  <Unit>
nM

>  <Type>
Ki

>  <pValue>
6.03

>  <Ligand Efficiency>
0.36

>  <Binding Efficiency>
19.19

>  <Surface Efficiency>
11.1

>  <Assay Index>
985564

>  <Assay Category>


>  <Assay Organism>
Homo sapiens

>  <Target ID>
65

>  <Target Name>
Cytochrome P450 19A1

>  <Target Organism>
Homo sapiens

>  <Target Description>
Target is a single protein chain

>  <Sequence Accession>
P11511

>  <Reference>


>  <Pubmed ID>
26469743

>  <DOI>
10.1016/j.ejmech.2015.09.038

$$$$
2058221
Actelion Java MolfileCreator 1.0

 23 27  0  0  0  0  0  0  0  0999 V2000
    0.0000   -0.0000   -0.0000 O   0  0  0  0  0  0  0  0  0  0  0  0
    1.0560    0.6062   -0.0000 C   0  0  0  0  0  0  0  0  0  0  0  0
    2.3466   -0.2151   -0.0000 C   0  0  0  0  0  0  0  0  0  0  0  0
    1.0364    2.3271   -0.0000 C   0  0  0  0  0  0  0  0  0  0  0  0
    3.6373    0.6844   -0.0000 C   0  0  0  0  0  0  0  0  0  0  0  0
    2.3075    3.1093   -0.0000 C   0  0  0  0  0  0  0  0  0  0  0  0
    1.7209    1.3102   -0.0000 C   0  0  0  0  0  0  0  0  0  0  0  0
    3.6177    2.3271   -0.0000 C   0  0  0  0  0  0  0  0  0  0  0  0
    4.8497   -0.1760   -0.0000 C   0  0  0  0  0  0  0  0  0  0  0  0
    2.9333    1.3298   -0.0000 C   0  0  0  0  0  0  0  0  0  0  0  0
    4.8302    3.1875   -0.0000 C   0  0  0  0  0  0  0  0  0  0  0  0
    6.0621    0.7235   -0.0000 C   0  0  0  0  0  0  0  0  0  0  0  0
    3.5004    0.2738   -0.0000 O   0  0  0  0  0  0  0  0  0  0  0  0
    6.0426    2.3662   -0.0000 C   0  0  0  0  0  0  0  0  0  0  0  0
    4.8106    4.8497   -0.0000 C   0  0  0  0  0  0  0  0  0  0  0  0
    7.2355    3.2266   -0.0000 C   0  0  0  0  0  0  0  0  0  0  0  0
    6.0230    5.7297   -0.0000 C   0  0  0  0  0  0  0  0  0  0  0  0
    7.2159    4.8888   -0.0000 C   0  0  0  0  0  0  0  0  0  0  0  0
    9.6994    3.2462   -0.0000 C   0  0  0  0  0  0  0  0  0  0  0  0
    8.4479    5.7688   -0.0000 C   0  0  0  0  0  0  0  0  0  0  0  0
    7.1963    6.1208   -0.0000 C   0  0  0  0  0  0  0  0  0  0  0  0
    9.6799    4.9084   -0.0000 C   0  0  0  0  0  0  0  0  0  0  0  0
    8.4283    7.0008   -0.0000 O   0  0  0  0  0  0  0  0  0  0  0  0
  1  2  2  0  0  0  0
  2  3  1  0  0  0  0
  2  4  1  0  0  0  0
  3  5  2  0  0  0  0
  4  6  1  6  0  0  0
  4  7  1  0  0  0  0
  5  8  1  0  0  0  0
  5  9  1  0  0  0  0
  7 10  1  0  0  0  0
  8 11  1  0  0  0  0
  9 12  1  0  0  0  0
 10 13  1  6  0  0  0
 11 14  1  0  0  0  0
 11 15  1  1  0  0  0
 14 16  1  0  0  0  0
 15 17  1  0  0  0  0
 16 18  1  0  0  0  0
 16 19  1  1  0  0  0
 18 20  1  0  0  0  0
 18 21  1  1  0  0  0
 19 22  1  0  0  0  0
 20 23  2  0  0  0  0
  8  6  1  6  0  0  0
  8 10  1  0  0  0  0
 14 12  1  6  0  0  0
 17 18  1  0  0  0  0
 20 22  1  0  0  0  0
M  END
>  <MolRegNo>
2058221

>  <m>
=

>  <Value>
870

>  <Unit>
nM

>  <Type>
Ki

>  <pValue>
6.06

>  <Ligand Efficiency>
0.36

>  <Binding Efficiency>
19.27

>  <Surface Efficiency>
11.15

>  <Assay Index>
985564

>  <Assay Category>


>  <Assay Organism>
Homo sapiens

>  <Target ID>
65

>  <Target Name>
Cytochrome P450 19A1

>  <Target Organism>
Homo sapiens

>  <Target Description>
Target is a single protein chain

>  <Sequence Accession>
P11511

>  <Reference>


>  <Pubmed ID>
26469743

>  <DOI>
10.1016/j.ejmech.2015.09.038

$$$$
2058222
Actelion Java MolfileCreator 1.0

 23 27  0  0  0  0  0  0  0  0999 V2000
    0.0000   -0.0000   -0.0000 O   0  0  0  0  0  0  0  0  0  0  0  0
    1.0559    0.6139   -0.0000 C   0  0  0  0  0  0  0  0  0  0  0  0
    2.3819   -0.1473   -0.0000 C   0  0  0  0  0  0  0  0  0  0  0  0
    1.0682    2.1486   -0.0000 C   0  0  0  0  0  0  0  0  0  0  0  0
    3.6834    0.6384   -0.0000 C   0  0  0  0  0  0  0  0  0  0  0  0
    1.0559    3.7202   -0.0000 C   0  0  0  0  0  0  0  0  0  0  0  0
    2.3573    2.9467   -0.0000 C   0  0  0  0  0  0  0  0  0  0  0  0
    3.6711    2.1732   -0.0000 C   0  0  0  0  0  0  0  0  0  0  0  0
    5.0094   -0.1228   -0.0000 C   0  0  0  0  0  0  0  0  0  0  0  0
    2.3205    4.5551   -0.0000 O   0  0  0  0  0  0  0  0  0  0  0  0
    4.9603    2.9712   -0.0000 C   0  0  0  0  0  0  0  0  0  0  0  0
    3.6342    3.7447   -0.0000 C   0  0  0  0  0  0  0  0  0  0  0  0
    6.3354    0.6630   -0.0000 C   0  0  0  0  0  0  0  0  0  0  0  0
    6.3231    2.1977   -0.0000 C   0  0  0  0  0  0  0  0  0  0  0  0
    4.9480    4.5183   -0.0000 C   0  0  0  0  0  0  0  0  0  0  0  0
    7.5877    2.9958   -0.0000 C   0  0  0  0  0  0  0  0  0  0  0  0
    6.3108    5.3040   -0.0000 C   0  0  0  0  0  0  0  0  0  0  0  0
    7.5754    4.5428   -0.0000 C   0  0  0  0  0  0  0  0  0  0  0  0
    9.0611    2.5292   -0.0000 C   0  0  0  0  0  0  0  0  0  0  0  0
    9.0488    5.0216   -0.0000 C   0  0  0  0  0  0  0  0  0  0  0  0
    7.7105    5.7706   -0.0000 C   0  0  0  0  0  0  0  0  0  0  0  0
    9.9082    3.8061   -0.0000 C   0  0  0  0  0  0  0  0  0  0  0  0
    9.4294    6.2003   -0.0000 O   0  0  0  0  0  0  0  0  0  0  0  0
  1  2  2  0  0  0  0
  2  3  1  0  0  0  0
  2  4  1  0  0  0  0
  3  5  2  0  0  0  0
  4  6  1  1  0  0  0
  4  7  1  0  0  0  0
  5  8  1  0  0  0  0
  5  9  1  0  0  0  0
  6 10  1  0  0  0  0
  8 11  1  0  0  0  0
  8 12  1  1  0  0  0
  9 13  1  0  0  0  0
 11 14  1  0  0  0  0
 11 15  1  1  0  0  0
 14 16  1  0  0  0  0
 15 17  1  0  0  0  0
 16 18  1  0  0  0  0
 16 19  1  1  0  0  0
 18 20  1  0  0  0  0
 18 21  1  1  0  0  0
 19 22  1  0  0  0  0
 20 23  2  0  0  0  0
  7  8  1  0  0  0  0
 10 12  1  0  0  0  0
 14 13  1  6  0  0  0
 17 18  1  0  0  0  0
 20 22  1  0  0  0  0
M  END
>  <MolRegNo>
2058222

>  <m>
=

>  <Value>
17.6

>  <Unit>
nM

>  <Type>
Ki

>  <pValue>
7.75

>  <Ligand Efficiency>
0.46

>  <Binding Efficiency>
24.66

>  <Surface Efficiency>
17.88

>  <Assay Index>
985564

>  <Assay Category>


>  <Assay Organism>
Homo sapiens

>  <Target ID>
65

>  <Target Name>
Cytochrome P450 19A1

>  <Target Organism>
Homo sapiens

>  <Target Description>
Target is a single protein chain

>  <Sequence Accession>
P11511

>  <Reference>


>  <Pubmed ID>
26469743

>  <DOI>
10.1016/j.ejmech.2015.09.038

$$$$
1831247
Actelion Java MolfileCreator 1.0

 23 25  0  0  0  0  0  0  0  0999 V2000
    0.0000   -0.0000   -0.0000 O   0  0  0  0  0  0  0  0  0  0  0  0
    1.0693    0.6365   -0.0000 C   0  0  0  0  0  0  0  0  0  0  0  0
    2.4060   -0.1273   -0.0000 C   0  0  0  0  0  0  0  0  0  0  0  0
    1.0566    2.2659   -0.0000 C   0  0  0  0  0  0  0  0  0  0  0  0
    3.7681    0.6620   -0.0000 C   0  0  0  0  0  0  0  0  0  0  0  0
    2.3932    3.0043   -0.0000 C   0  0  0  0  0  0  0  0  0  0  0  0
    3.7553    2.2914   -0.0000 C   0  0  0  0  0  0  0  0  0  0  0  0
    5.0920   -0.1018   -0.0000 C   0  0  0  0  0  0  0  0  0  0  0  0
    5.0792    3.0297   -0.0000 C   0  0  0  0  0  0  0  0  0  0  0  0
    2.6606    1.6676   -0.0000 C   0  0  0  0  0  0  0  0  0  0  0  0
    6.4286    0.6874   -0.0000 C   0  0  0  0  0  0  0  0  0  0  0  0
    6.4159    2.3168   -0.0000 C   0  0  0  0  0  0  0  0  0  0  0  0
    5.0665    4.6082   -0.0000 C   0  0  0  0  0  0  0  0  0  0  0  0
    7.7780    3.0552   -0.0000 C   0  0  0  0  0  0  0  0  0  0  0  0
    6.4031    5.4229   -0.0000 C   0  0  0  0  0  0  0  0  0  0  0  0
    7.7652    4.6337   -0.0000 C   0  0  0  0  0  0  0  0  0  0  0  0
    9.1019    2.2532   -0.0000 C   0  0  0  0  0  0  0  0  0  0  0  0
    7.7143    6.1867   -0.0000 C   0  0  0  0  0  0  0  0  0  0  0  0
    8.8218    3.9972   -0.0000 C   0  0  0  0  0  0  0  0  0  0  0  0
    9.0510    0.7001   -0.0000 C   0  0  0  0  0  0  0  0  0  0  0  0
    6.3522    6.9887   -0.0000 C   0  0  0  0  0  0  0  0  0  0  0  0
    9.0128   -0.5347   -0.0000 N   0  0  0  0  0  0  0  0  0  0  0  0
    5.2575    7.6252   -0.0000 N   0  0  0  0  0  0  0  0  0  0  0  0
  1  2  2  0  0  0  0
  2  3  1  0  0  0  0
  2  4  1  0  0  0  0
  3  5  2  0  0  0  0
  4  6  1  0  0  0  0
  5  7  1  0  0  0  0
  5  8  1  0  0  0  0
  7  9  1  0  0  0  0
  7 10  1  6  0  0  0
  8 11  1  0  0  0  0
  9 12  1  0  0  0  0
  9 13  1  6  0  0  0
 12 14  1  0  0  0  0
 13 15  1  0  0  0  0
 16 14  1  1  0  0  0
 14 17  1  6  0  0  0
 16 18  1  0  0  0  0
 16 19  1  0  0  0  0
 17 20  1  0  0  0  0
 18 21  1  0  0  0  0
 20 22  3  0  0  0  0
 21 23  3  0  0  0  0
  6  7  1  0  0  0  0
 12 11  1  1  0  0  0
 15 16  1  0  0  0  0
M  END
>  <MolRegNo>
1831247

>  <m>
=

>  <Value>
10000

>  <Unit>
nM

>  <Type>
Ki

>  <pValue>
5

>  <Ligand Efficiency>
0.3

>  <Binding Efficiency>
16.11

>  <Surface Efficiency>
7.73

>  <Assay Index>
985549

>  <Assay Category>


>  <Assay Organism>
Homo sapiens

>  <Target ID>
65

>  <Target Name>
Cytochrome P450 19A1

>  <Target Organism>
Homo sapiens

>  <Target Description>
Target is a single protein chain

>  <Sequence Accession>
P11511

>  <Reference>


>  <Pubmed ID>
26469743

>  <DOI>
10.1016/j.ejmech.2015.09.038

$$$$
2058273
Actelion Java MolfileCreator 1.0

 29 33  0  0  0  0  0  0  0  0999 V2000
    0.0000   -0.0000   -0.0000 O   0  0  0  0  0  0  0  0  0  0  0  0
    0.0000   -1.2170   -0.0000 C   0  0  0  0  0  0  0  0  0  0  0  0
   -1.3013   -1.9640   -0.0000 C   0  0  0  0  0  0  0  0  0  0  0  0
    1.2772   -1.9520   -0.0000 C   0  0  0  0  0  0  0  0  0  0  0  0
   -1.3133   -3.4219   -0.0000 C   0  0  0  0  0  0  0  0  0  0  0  0
   -2.5785   -1.2049   -0.0000 C   0  0  0  0  0  0  0  0  0  0  0  0
   -1.3133   -0.7229   -0.0000 C   0  0  0  0  0  0  0  0  0  0  0  0
    1.2652   -3.4460   -0.0000 C   0  0  0  0  0  0  0  0  0  0  0  0
   -2.5906   -4.1328   -0.0000 C   0  0  0  0  0  0  0  0  0  0  0  0
   -3.8798   -1.9399   -0.0000 C   0  0  0  0  0  0  0  0  0  0  0  0
   -3.8678   -3.4099   -0.0000 C   0  0  0  0  0  0  0  0  0  0  0  0
   -2.5785   -5.5908   -0.0000 C   0  0  0  0  0  0  0  0  0  0  0  0
   -5.1450   -4.1208   -0.0000 C   0  0  0  0  0  0  0  0  0  0  0  0
   -3.8557   -6.3378   -0.0000 C   0  0  0  0  0  0  0  0  0  0  0  0
   -5.1570   -5.5787   -0.0000 C   0  0  0  0  0  0  0  0  0  0  0  0
   -6.4583   -3.3978   -0.0000 C   0  0  0  0  0  0  0  0  0  0  0  0
   -3.8557   -7.8560   -0.0000 C   0  0  0  0  0  0  0  0  0  0  0  0
   -6.4583   -6.3258   -0.0000 C   0  0  0  0  0  0  0  0  0  0  0  0
   -7.7114   -4.1087   -0.0000 C   0  0  0  0  0  0  0  0  0  0  0  0
   -2.5303   -8.5910   -0.0000 C   0  0  0  0  0  0  0  0  0  0  0  0
   -7.7355   -5.5667   -0.0000 C   0  0  0  0  0  0  0  0  0  0  0  0
   -2.5183  -10.1092   -0.0000 C   0  0  0  0  0  0  0  0  0  0  0  0
   -8.8079   -6.1571   -0.0000 O   0  0  0  0  0  0  0  0  0  0  0  0
   -1.1929  -10.8442   -0.0000 C   0  0  0  0  0  0  0  0  0  0  0  0
   -1.1808  -12.3624   -0.0000 C   0  0  0  0  0  0  0  0  0  0  0  0
    0.1084  -10.0489   -0.0000 C   0  0  0  0  0  0  0  0  0  0  0  0
    0.1446  -13.0974   -0.0000 C   0  0  0  0  0  0  0  0  0  0  0  0
    1.4338  -10.7839   -0.0000 C   0  0  0  0  0  0  0  0  0  0  0  0
    1.4459  -12.3021   -0.0000 C   0  0  0  0  0  0  0  0  0  0  0  0
  1  2  2  0  0  0  0
  2  3  1  0  0  0  0
  2  4  1  0  0  0  0
  3  5  1  0  0  0  0
  3  6  1  0  0  0  0
  3  7  1  1  0  0  0
  4  8  1  0  0  0  0
  5  9  1  0  0  0  0
  6 10  1  0  0  0  0
  9 11  1  0  0  0  0
  9 12  1  6  0  0  0
 11 13  1  0  0  0  0
 12 14  1  0  0  0  0
 13 15  2  0  0  0  0
 13 16  1  0  0  0  0
 14 17  1  1  0  0  0
 15 18  1  0  0  0  0
 16 19  2  0  0  0  0
 17 20  1  0  0  0  0
 18 21  2  0  0  0  0
 20 22  1  0  0  0  0
 21 23  1  0  0  0  0
 22 24  1  0  0  0  0
 24 25  2  0  0  0  0
 24 26  1  0  0  0  0
 25 27  1  0  0  0  0
 26 28  2  0  0  0  0
 27 29  2  0  0  0  0
  5  8  1  1  0  0  0
 11 10  1  1  0  0  0
 14 15  1  0  0  0  0
 19 21  1  0  0  0  0
 28 29  1  0  0  0  0
M  END
>  <MolRegNo>
2058273

>  <m>
=

>  <Value>
100

>  <Unit>
nM

>  <Type>
Ki

>  <pValue>
7

>  <Ligand Efficiency>
0.33

>  <Binding Efficiency>
18.02

>  <Surface Efficiency>
18.77

>  <Assay Index>
985353

>  <Assay Category>


>  <Assay Organism>
Homo sapiens

>  <Target ID>
65

>  <Target Name>
Cytochrome P450 19A1

>  <Target Organism>
Homo sapiens

>  <Target Description>
Target is a single protein chain

>  <Sequence Accession>
P11511

>  <Reference>


>  <Pubmed ID>
26469743

>  <DOI>
10.1016/j.ejmech.2015.09.038

$$$$
2058272
Actelion Java MolfileCreator 1.0

 29 33  0  0  0  0  0  0  0  0999 V2000
    0.0000   -0.0000   -0.0000 O   0  0  0  0  0  0  0  0  0  0  0  0
    0.0000   -1.2170   -0.0000 C   0  0  0  0  0  0  0  0  0  0  0  0
   -1.3013   -1.9640   -0.0000 C   0  0  0  0  0  0  0  0  0  0  0  0
    1.2772   -1.9520   -0.0000 C   0  0  0  0  0  0  0  0  0  0  0  0
   -1.3133   -3.4219   -0.0000 C   0  0  0  0  0  0  0  0  0  0  0  0
   -2.5785   -1.2049   -0.0000 C   0  0  0  0  0  0  0  0  0  0  0  0
   -1.3133   -0.7229   -0.0000 C   0  0  0  0  0  0  0  0  0  0  0  0
    1.2652   -3.4460   -0.0000 C   0  0  0  0  0  0  0  0  0  0  0  0
   -2.5906   -4.1328   -0.0000 C   0  0  0  0  0  0  0  0  0  0  0  0
   -3.8798   -1.9399   -0.0000 C   0  0  0  0  0  0  0  0  0  0  0  0
   -3.8678   -3.4099   -0.0000 C   0  0  0  0  0  0  0  0  0  0  0  0
   -2.5785   -5.5908   -0.0000 C   0  0  0  0  0  0  0  0  0  0  0  0
   -5.1450   -4.1208   -0.0000 C   0  0  0  0  0  0  0  0  0  0  0  0
   -3.8557   -6.3378   -0.0000 C   0  0  0  0  0  0  0  0  0  0  0  0
   -5.1570   -5.5787   -0.0000 C   0  0  0  0  0  0  0  0  0  0  0  0
   -6.4583   -3.3978   -0.0000 C   0  0  0  0  0  0  0  0  0  0  0  0
   -3.8557   -7.8560   -0.0000 C   0  0  0  0  0  0  0  0  0  0  0  0
   -6.4583   -6.3258   -0.0000 C   0  0  0  0  0  0  0  0  0  0  0  0
   -7.7114   -4.1087   -0.0000 C   0  0  0  0  0  0  0  0  0  0  0  0
   -2.5303   -8.5910   -0.0000 C   0  0  0  0  0  0  0  0  0  0  0  0
   -7.7355   -5.5667   -0.0000 C   0  0  0  0  0  0  0  0  0  0  0  0
   -2.5183  -10.1092   -0.0000 C   0  0  0  0  0  0  0  0  0  0  0  0
   -8.8079   -6.1571   -0.0000 O   0  0  0  0  0  0  0  0  0  0  0  0
   -1.1929  -10.8442   -0.0000 C   0  0  0  0  0  0  0  0  0  0  0  0
   -1.1808  -12.3624   -0.0000 C   0  0  0  0  0  0  0  0  0  0  0  0
    0.1084  -10.0489   -0.0000 C   0  0  0  0  0  0  0  0  0  0  0  0
    0.1446  -13.0974   -0.0000 C   0  0  0  0  0  0  0  0  0  0  0  0
    1.4338  -10.7839   -0.0000 C   0  0  0  0  0  0  0  0  0  0  0  0
    1.4459  -12.3021   -0.0000 C   0  0  0  0  0  0  0  0  0  0  0  0
  1  2  2  0  0  0  0
  2  3  1  0  0  0  0
  2  4  1  0  0  0  0
  3  5  1  0  0  0  0
  3  6  1  0  0  0  0
  3  7  1  1  0  0  0
  4  8  1  0  0  0  0
  5  9  1  0  0  0  0
  6 10  1  0  0  0  0
  9 11  1  0  0  0  0
  9 12  1  6  0  0  0
 11 13  1  0  0  0  0
 12 14  1  0  0  0  0
 13 15  2  0  0  0  0
 13 16  1  0  0  0  0
 14 17  1  6  0  0  0
 15 18  1  0  0  0  0
 16 19  2  0  0  0  0
 17 20  1  0  0  0  0
 18 21  2  0  0  0  0
 20 22  1  0  0  0  0
 21 23  1  0  0  0  0
 22 24  1  0  0  0  0
 24 25  2  0  0  0  0
 24 26  1  0  0  0  0
 25 27  1  0  0  0  0
 26 28  2  0  0  0  0
 27 29  2  0  0  0  0
  5  8  1  1  0  0  0
 11 10  1  1  0  0  0
 14 15  1  0  0  0  0
 19 21  1  0  0  0  0
 28 29  1  0  0  0  0
M  END
>  <MolRegNo>
2058272

>  <m>
=

>  <Value>
100

>  <Unit>
nM

>  <Type>
Ki

>  <pValue>
7

>  <Ligand Efficiency>
0.33

>  <Binding Efficiency>
18.02

>  <Surface Efficiency>
18.77

>  <Assay Index>
985353

>  <Assay Category>


>  <Assay Organism>
Homo sapiens

>  <Target ID>
65

>  <Target Name>
Cytochrome P450 19A1

>  <Target Organism>
Homo sapiens

>  <Target Description>
Target is a single protein chain

>  <Sequence Accession>
P11511

>  <Reference>


>  <Pubmed ID>
26469743

>  <DOI>
10.1016/j.ejmech.2015.09.038

$$$$
2058271
Actelion Java MolfileCreator 1.0

 29 33  0  0  0  0  0  0  0  0999 V2000
    0.0000   -0.0000   -0.0000 O   0  0  0  0  0  0  0  0  0  0  0  0
    1.0519    0.6271   -0.0000 C   0  0  0  0  0  0  0  0  0  0  0  0
    2.3061   -0.1011   -0.0000 C   0  0  0  0  0  0  0  0  0  0  0  0
    1.0317    2.1240   -0.0000 C   0  0  0  0  0  0  0  0  0  0  0  0
    3.5602    0.6878   -0.0000 C   0  0  0  0  0  0  0  0  0  0  0  0
    2.2656    2.8725   -0.0000 C   0  0  0  0  0  0  0  0  0  0  0  0
    3.5400    2.1847   -0.0000 C   0  0  0  0  0  0  0  0  0  0  0  0
    4.8346   -0.0405   -0.0000 C   0  0  0  0  0  0  0  0  0  0  0  0
    4.7942    2.9331   -0.0000 C   0  0  0  0  0  0  0  0  0  0  0  0
    6.0888    0.7485   -0.0000 C   0  0  0  0  0  0  0  0  0  0  0  0
    4.8346   -1.5576   -0.0000 C   0  0  0  0  0  0  0  0  0  0  0  0
    6.0483    2.2454   -0.0000 C   0  0  0  0  0  0  0  0  0  0  0  0
    4.7537    4.4503   -0.0000 C   0  0  0  0  0  0  0  0  0  0  0  0
    6.1495   -2.2858   -0.0000 C   0  0  0  0  0  0  0  0  0  0  0  0
    7.3025    2.9938   -0.0000 C   0  0  0  0  0  0  0  0  0  0  0  0
    6.0079    5.2190   -0.0000 C   0  0  0  0  0  0  0  0  0  0  0  0
    6.1495   -3.8030   -0.0000 C   0  0  0  0  0  0  0  0  0  0  0  0
    7.2823    4.4907   -0.0000 C   0  0  0  0  0  0  0  0  0  0  0  0
    9.8513    2.9938   -0.0000 C   0  0  0  0  0  0  0  0  0  0  0  0
    7.4643   -4.5312   -0.0000 C   0  0  0  0  0  0  0  0  0  0  0  0
    8.5364    5.2797   -0.0000 C   0  0  0  0  0  0  0  0  0  0  0  0
    7.2620    5.7449   -0.0000 C   0  0  0  0  0  0  0  0  0  0  0  0
    9.8311    4.5312   -0.0000 C   0  0  0  0  0  0  0  0  0  0  0  0
    7.4643   -6.0483   -0.0000 C   0  0  0  0  0  0  0  0  0  0  0  0
    8.7590   -3.7221   -0.0000 C   0  0  0  0  0  0  0  0  0  0  0  0
    8.5162    6.5338   -0.0000 O   0  0  0  0  0  0  0  0  0  0  0  0
    8.7792   -6.7766   -0.0000 C   0  0  0  0  0  0  0  0  0  0  0  0
   10.0738   -4.4503   -0.0000 C   0  0  0  0  0  0  0  0  0  0  0  0
   10.0738   -5.9674   -0.0000 C   0  0  0  0  0  0  0  0  0  0  0  0
  1  2  1  0  0  0  0
  2  3  2  0  0  0  0
  2  4  1  0  0  0  0
  3  5  1  0  0  0  0
  4  6  2  0  0  0  0
  5  7  2  0  0  0  0
  5  8  1  0  0  0  0
  7  9  1  0  0  0  0
  8 10  1  0  0  0  0
  8 11  1  1  0  0  0
  9 12  1  0  0  0  0
  9 13  1  1  0  0  0
 11 14  1  0  0  0  0
 12 15  1  0  0  0  0
 13 16  1  0  0  0  0
 14 17  1  0  0  0  0
 15 18  1  0  0  0  0
 15 19  1  1  0  0  0
 17 20  1  0  0  0  0
 18 21  1  0  0  0  0
 18 22  1  1  0  0  0
 19 23  1  0  0  0  0
 20 24  2  0  0  0  0
 20 25  1  0  0  0  0
 21 26  1  1  0  0  0
 24 27  1  0  0  0  0
 25 28  2  0  0  0  0
 27 29  2  0  0  0  0
  6  7  1  0  0  0  0
 12 10  1  6  0  0  0
 16 18  1  0  0  0  0
 21 23  1  0  0  0  0
 28 29  1  0  0  0  0
M  END
>  <MolRegNo>
2058271

>  <m>
=

>  <Value>
100

>  <Unit>
nM

>  <Type>
Ki

>  <pValue>
7

>  <Ligand Efficiency>
0.33

>  <Binding Efficiency>
17.92

>  <Surface Efficiency>
17.3

>  <Assay Index>
985353

>  <Assay Category>


>  <Assay Organism>
Homo sapiens

>  <Target ID>
65

>  <Target Name>
Cytochrome P450 19A1

>  <Target Organism>
Homo sapiens

>  <Target Description>
Target is a single protein chain

>  <Sequence Accession>
P11511

>  <Reference>


>  <Pubmed ID>
26469743

>  <DOI>
10.1016/j.ejmech.2015.09.038

$$$$
2058270
Actelion Java MolfileCreator 1.0

 29 33  0  0  0  0  0  0  0  0999 V2000
    0.0000   -0.0000   -0.0000 O   0  0  0  0  0  0  0  0  0  0  0  0
    1.0519    0.6271   -0.0000 C   0  0  0  0  0  0  0  0  0  0  0  0
    2.3061   -0.1011   -0.0000 C   0  0  0  0  0  0  0  0  0  0  0  0
    1.0317    2.1240   -0.0000 C   0  0  0  0  0  0  0  0  0  0  0  0
    3.5602    0.6878   -0.0000 C   0  0  0  0  0  0  0  0  0  0  0  0
    2.2656    2.8725   -0.0000 C   0  0  0  0  0  0  0  0  0  0  0  0
    3.5400    2.1847   -0.0000 C   0  0  0  0  0  0  0  0  0  0  0  0
    4.8346   -0.0405   -0.0000 C   0  0  0  0  0  0  0  0  0  0  0  0
    4.7942    2.9331   -0.0000 C   0  0  0  0  0  0  0  0  0  0  0  0
    6.0888    0.7485   -0.0000 C   0  0  0  0  0  0  0  0  0  0  0  0
    4.8346   -1.5576   -0.0000 C   0  0  0  0  0  0  0  0  0  0  0  0
    6.0483    2.2454   -0.0000 C   0  0  0  0  0  0  0  0  0  0  0  0
    4.7537    4.4503   -0.0000 C   0  0  0  0  0  0  0  0  0  0  0  0
    6.1495   -2.2858   -0.0000 C   0  0  0  0  0  0  0  0  0  0  0  0
    7.3025    2.9938   -0.0000 C   0  0  0  0  0  0  0  0  0  0  0  0
    6.0079    5.2190   -0.0000 C   0  0  0  0  0  0  0  0  0  0  0  0
    6.1495   -3.8030   -0.0000 C   0  0  0  0  0  0  0  0  0  0  0  0
    7.2823    4.4907   -0.0000 C   0  0  0  0  0  0  0  0  0  0  0  0
    9.8513    2.9938   -0.0000 C   0  0  0  0  0  0  0  0  0  0  0  0
    7.4643   -4.5312   -0.0000 C   0  0  0  0  0  0  0  0  0  0  0  0
    8.5364    5.2797   -0.0000 C   0  0  0  0  0  0  0  0  0  0  0  0
    7.2620    5.7449   -0.0000 C   0  0  0  0  0  0  0  0  0  0  0  0
    9.8311    4.5312   -0.0000 C   0  0  0  0  0  0  0  0  0  0  0  0
    7.4643   -6.0483   -0.0000 C   0  0  0  0  0  0  0  0  0  0  0  0
    8.7590   -3.7221   -0.0000 C   0  0  0  0  0  0  0  0  0  0  0  0
    8.5162    6.5338   -0.0000 O   0  0  0  0  0  0  0  0  0  0  0  0
    8.7792   -6.7766   -0.0000 C   0  0  0  0  0  0  0  0  0  0  0  0
   10.0738   -4.4503   -0.0000 C   0  0  0  0  0  0  0  0  0  0  0  0
   10.0738   -5.9674   -0.0000 C   0  0  0  0  0  0  0  0  0  0  0  0
  1  2  1  0  0  0  0
  2  3  2  0  0  0  0
  2  4  1  0  0  0  0
  3  5  1  0  0  0  0
  4  6  2  0  0  0  0
  5  7  2  0  0  0  0
  5  8  1  0  0  0  0
  7  9  1  0  0  0  0
  8 10  1  0  0  0  0
  8 11  1  6  0  0  0
  9 12  1  0  0  0  0
  9 13  1  1  0  0  0
 11 14  1  0  0  0  0
 12 15  1  0  0  0  0
 13 16  1  0  0  0  0
 14 17  1  0  0  0  0
 15 18  1  0  0  0  0
 15 19  1  1  0  0  0
 17 20  1  0  0  0  0
 18 21  1  0  0  0  0
 18 22  1  1  0  0  0
 19 23  1  0  0  0  0
 20 24  2  0  0  0  0
 20 25  1  0  0  0  0
 21 26  1  1  0  0  0
 24 27  1  0  0  0  0
 25 28  2  0  0  0  0
 27 29  2  0  0  0  0
  6  7  1  0  0  0  0
 12 10  1  6  0  0  0
 16 18  1  0  0  0  0
 21 23  1  0  0  0  0
 28 29  1  0  0  0  0
M  END
>  <MolRegNo>
2058270

>  <m>
=

>  <Value>
100

>  <Unit>
nM

>  <Type>
Ki

>  <pValue>
7

>  <Ligand Efficiency>
0.33

>  <Binding Efficiency>
17.92

>  <Surface Efficiency>
17.3

>  <Assay Index>
985353

>  <Assay Category>


>  <Assay Organism>
Homo sapiens

>  <Target ID>
65

>  <Target Name>
Cytochrome P450 19A1

>  <Target Organism>
Homo sapiens

>  <Target Description>
Target is a single protein chain

>  <Sequence Accession>
P11511

>  <Reference>


>  <Pubmed ID>
26469743

>  <DOI>
10.1016/j.ejmech.2015.09.038

$$$$
2058269
Actelion Java MolfileCreator 1.0

 27 31  0  0  0  0  0  0  0  0999 V2000
    0.0000   -0.0000   -0.0000 O   0  0  0  0  0  0  0  0  0  0  0  0
    0.0000   -1.2178   -0.0000 C   0  0  0  0  0  0  0  0  0  0  0  0
   -1.3022   -1.9654   -0.0000 C   0  0  0  0  0  0  0  0  0  0  0  0
    1.2781   -1.9534   -0.0000 C   0  0  0  0  0  0  0  0  0  0  0  0
   -1.3143   -3.4244   -0.0000 C   0  0  0  0  0  0  0  0  0  0  0  0
   -2.5804   -1.2058   -0.0000 C   0  0  0  0  0  0  0  0  0  0  0  0
   -1.3143   -0.7235   -0.0000 C   0  0  0  0  0  0  0  0  0  0  0  0
    1.2661   -3.4485   -0.0000 C   0  0  0  0  0  0  0  0  0  0  0  0
   -2.5924   -4.1358   -0.0000 C   0  0  0  0  0  0  0  0  0  0  0  0
   -3.8826   -1.9413   -0.0000 C   0  0  0  0  0  0  0  0  0  0  0  0
   -3.8706   -3.4124   -0.0000 C   0  0  0  0  0  0  0  0  0  0  0  0
   -2.5804   -5.5948   -0.0000 C   0  0  0  0  0  0  0  0  0  0  0  0
   -5.1487   -4.1238   -0.0000 C   0  0  0  0  0  0  0  0  0  0  0  0
   -3.8585   -6.3424   -0.0000 C   0  0  0  0  0  0  0  0  0  0  0  0
   -5.1608   -5.5828   -0.0000 C   0  0  0  0  0  0  0  0  0  0  0  0
   -6.4630   -3.4003   -0.0000 C   0  0  0  0  0  0  0  0  0  0  0  0
   -3.8585   -7.8617   -0.0000 C   0  0  0  0  0  0  0  0  0  0  0  0
   -6.4630   -6.3304   -0.0000 C   0  0  0  0  0  0  0  0  0  0  0  0
   -7.7170   -4.1117   -0.0000 C   0  0  0  0  0  0  0  0  0  0  0  0
   -2.5321   -8.5972   -0.0000 C   0  0  0  0  0  0  0  0  0  0  0  0
   -7.7411   -5.5707   -0.0000 C   0  0  0  0  0  0  0  0  0  0  0  0
   -2.5201  -10.1165   -0.0000 C   0  0  0  0  0  0  0  0  0  0  0  0
   -1.2299   -7.8014   -0.0000 C   0  0  0  0  0  0  0  0  0  0  0  0
   -8.8143   -6.1616   -0.0000 O   0  0  0  0  0  0  0  0  0  0  0  0
   -1.1937  -10.8521   -0.0000 C   0  0  0  0  0  0  0  0  0  0  0  0
    0.0965   -8.5370   -0.0000 C   0  0  0  0  0  0  0  0  0  0  0  0
    0.1085  -10.0562   -0.0000 C   0  0  0  0  0  0  0  0  0  0  0  0
  1  2  2  0  0  0  0
  2  3  1  0  0  0  0
  2  4  1  0  0  0  0
  3  5  1  0  0  0  0
  3  6  1  0  0  0  0
  3  7  1  1  0  0  0
  4  8  1  0  0  0  0
  5  9  1  0  0  0  0
  6 10  1  0  0  0  0
  9 11  1  0  0  0  0
  9 12  1  6  0  0  0
 11 13  1  0  0  0  0
 12 14  1  0  0  0  0
 13 15  2  0  0  0  0
 13 16  1  0  0  0  0
 14 17  1  1  0  0  0
 15 18  1  0  0  0  0
 16 19  2  0  0  0  0
 17 20  1  0  0  0  0
 18 21  2  0  0  0  0
 20 22  2  0  0  0  0
 20 23  1  0  0  0  0
 21 24  1  0  0  0  0
 22 25  1  0  0  0  0
 23 26  2  0  0  0  0
 25 27  2  0  0  0  0
  5  8  1  1  0  0  0
 11 10  1  1  0  0  0
 14 15  1  0  0  0  0
 19 21  1  0  0  0  0
 26 27  1  0  0  0  0
M  END
>  <MolRegNo>
2058269

>  <m>
=

>  <Value>
100

>  <Unit>
nM

>  <Type>
Ki

>  <pValue>
7

>  <Ligand Efficiency>
0.35

>  <Binding Efficiency>
19.42

>  <Surface Efficiency>
18.77

>  <Assay Index>
985353

>  <Assay Category>


>  <Assay Organism>
Homo sapiens

>  <Target ID>
65

>  <Target Name>
Cytochrome P450 19A1

>  <Target Organism>
Homo sapiens

>  <Target Description>
Target is a single protein chain

>  <Sequence Accession>
P11511

>  <Reference>


>  <Pubmed ID>
26469743

>  <DOI>
10.1016/j.ejmech.2015.09.038

$$$$
2058268
Actelion Java MolfileCreator 1.0

 27 31  0  0  0  0  0  0  0  0999 V2000
    0.0000   -0.0000   -0.0000 O   0  0  0  0  0  0  0  0  0  0  0  0
    0.0000   -1.2178   -0.0000 C   0  0  0  0  0  0  0  0  0  0  0  0
   -1.3022   -1.9654   -0.0000 C   0  0  0  0  0  0  0  0  0  0  0  0
    1.2781   -1.9534   -0.0000 C   0  0  0  0  0  0  0  0  0  0  0  0
   -1.3143   -3.4244   -0.0000 C   0  0  0  0  0  0  0  0  0  0  0  0
   -2.5804   -1.2058   -0.0000 C   0  0  0  0  0  0  0  0  0  0  0  0
   -1.3143   -0.7235   -0.0000 C   0  0  0  0  0  0  0  0  0  0  0  0
    1.2661   -3.4485   -0.0000 C   0  0  0  0  0  0  0  0  0  0  0  0
   -2.5924   -4.1358   -0.0000 C   0  0  0  0  0  0  0  0  0  0  0  0
   -3.8826   -1.9413   -0.0000 C   0  0  0  0  0  0  0  0  0  0  0  0
   -3.8706   -3.4124   -0.0000 C   0  0  0  0  0  0  0  0  0  0  0  0
   -2.5804   -5.5948   -0.0000 C   0  0  0  0  0  0  0  0  0  0  0  0
   -5.1487   -4.1238   -0.0000 C   0  0  0  0  0  0  0  0  0  0  0  0
   -3.8585   -6.3424   -0.0000 C   0  0  0  0  0  0  0  0  0  0  0  0
   -5.1608   -5.5828   -0.0000 C   0  0  0  0  0  0  0  0  0  0  0  0
   -6.4630   -3.4003   -0.0000 C   0  0  0  0  0  0  0  0  0  0  0  0
   -3.8585   -7.8617   -0.0000 C   0  0  0  0  0  0  0  0  0  0  0  0
   -6.4630   -6.3304   -0.0000 C   0  0  0  0  0  0  0  0  0  0  0  0
   -7.7170   -4.1117   -0.0000 C   0  0  0  0  0  0  0  0  0  0  0  0
   -2.5321   -8.5972   -0.0000 C   0  0  0  0  0  0  0  0  0  0  0  0
   -7.7411   -5.5707   -0.0000 C   0  0  0  0  0  0  0  0  0  0  0  0
   -2.5201  -10.1165   -0.0000 C   0  0  0  0  0  0  0  0  0  0  0  0
   -1.2299   -7.8014   -0.0000 C   0  0  0  0  0  0  0  0  0  0  0  0
   -8.8143   -6.1616   -0.0000 O   0  0  0  0  0  0  0  0  0  0  0  0
   -1.1937  -10.8521   -0.0000 C   0  0  0  0  0  0  0  0  0  0  0  0
    0.0965   -8.5370   -0.0000 C   0  0  0  0  0  0  0  0  0  0  0  0
    0.1085  -10.0562   -0.0000 C   0  0  0  0  0  0  0  0  0  0  0  0
  1  2  2  0  0  0  0
  2  3  1  0  0  0  0
  2  4  1  0  0  0  0
  3  5  1  0  0  0  0
  3  6  1  0  0  0  0
  3  7  1  1  0  0  0
  4  8  1  0  0  0  0
  5  9  1  0  0  0  0
  6 10  1  0  0  0  0
  9 11  1  0  0  0  0
  9 12  1  6  0  0  0
 11 13  1  0  0  0  0
 12 14  1  0  0  0  0
 13 15  2  0  0  0  0
 13 16  1  0  0  0  0
 14 17  1  6  0  0  0
 15 18  1  0  0  0  0
 16 19  2  0  0  0  0
 17 20  1  0  0  0  0
 18 21  2  0  0  0  0
 20 22  2  0  0  0  0
 20 23  1  0  0  0  0
 21 24  1  0  0  0  0
 22 25  1  0  0  0  0
 23 26  2  0  0  0  0
 25 27  2  0  0  0  0
  5  8  1  1  0  0  0
 11 10  1  1  0  0  0
 14 15  1  0  0  0  0
 19 21  1  0  0  0  0
 26 27  1  0  0  0  0
M  END
>  <MolRegNo>
2058268

>  <m>
=

>  <Value>
100

>  <Unit>
nM

>  <Type>
Ki

>  <pValue>
7

>  <Ligand Efficiency>
0.35

>  <Binding Efficiency>
19.42

>  <Surface Efficiency>
18.77

>  <Assay Index>
985353

>  <Assay Category>


>  <Assay Organism>
Homo sapiens

>  <Target ID>
65

>  <Target Name>
Cytochrome P450 19A1

>  <Target Organism>
Homo sapiens

>  <Target Description>
Target is a single protein chain

>  <Sequence Accession>
P11511

>  <Reference>


>  <Pubmed ID>
26469743

>  <DOI>
10.1016/j.ejmech.2015.09.038

$$$$
2058267
Actelion Java MolfileCreator 1.0

 27 31  0  0  0  0  0  0  0  0999 V2000
    0.0000   -0.0000   -0.0000 O   0  0  0  0  0  0  0  0  0  0  0  0
    1.0523    0.6274   -0.0000 C   0  0  0  0  0  0  0  0  0  0  0  0
    2.3071   -0.1012   -0.0000 C   0  0  0  0  0  0  0  0  0  0  0  0
    1.0321    2.1249   -0.0000 C   0  0  0  0  0  0  0  0  0  0  0  0
    3.5618    0.6881   -0.0000 C   0  0  0  0  0  0  0  0  0  0  0  0
    2.2666    2.8737   -0.0000 C   0  0  0  0  0  0  0  0  0  0  0  0
    3.5415    2.1856   -0.0000 C   0  0  0  0  0  0  0  0  0  0  0  0
    4.8367   -0.0405   -0.0000 C   0  0  0  0  0  0  0  0  0  0  0  0
    4.7962    2.9344   -0.0000 C   0  0  0  0  0  0  0  0  0  0  0  0
    6.0914    0.7488   -0.0000 C   0  0  0  0  0  0  0  0  0  0  0  0
    4.8367   -1.5583   -0.0000 C   0  0  0  0  0  0  0  0  0  0  0  0
    6.0510    2.2463   -0.0000 C   0  0  0  0  0  0  0  0  0  0  0  0
    4.7558    4.4522   -0.0000 C   0  0  0  0  0  0  0  0  0  0  0  0
    6.1521   -2.2868   -0.0000 C   0  0  0  0  0  0  0  0  0  0  0  0
    7.3057    2.9951   -0.0000 C   0  0  0  0  0  0  0  0  0  0  0  0
    6.0105    5.2212   -0.0000 C   0  0  0  0  0  0  0  0  0  0  0  0
    6.1521   -3.8046   -0.0000 C   0  0  0  0  0  0  0  0  0  0  0  0
    7.4473   -1.4773   -0.0000 C   0  0  0  0  0  0  0  0  0  0  0  0
    7.2854    4.4927   -0.0000 C   0  0  0  0  0  0  0  0  0  0  0  0
    9.8556    2.9951   -0.0000 C   0  0  0  0  0  0  0  0  0  0  0  0
    7.4676   -4.5332   -0.0000 C   0  0  0  0  0  0  0  0  0  0  0  0
    8.7628   -2.2059   -0.0000 C   0  0  0  0  0  0  0  0  0  0  0  0
    8.5402    5.2819   -0.0000 C   0  0  0  0  0  0  0  0  0  0  0  0
    7.2652    5.7474   -0.0000 C   0  0  0  0  0  0  0  0  0  0  0  0
    9.8353    4.5332   -0.0000 C   0  0  0  0  0  0  0  0  0  0  0  0
    8.7628   -3.7237   -0.0000 C   0  0  0  0  0  0  0  0  0  0  0  0
    8.5199    6.5367   -0.0000 O   0  0  0  0  0  0  0  0  0  0  0  0
  1  2  1  0  0  0  0
  2  3  2  0  0  0  0
  2  4  1  0  0  0  0
  3  5  1  0  0  0  0
  4  6  2  0  0  0  0
  5  7  2  0  0  0  0
  5  8  1  0  0  0  0
  7  9  1  0  0  0  0
  8 10  1  0  0  0  0
  8 11  1  1  0  0  0
  9 12  1  0  0  0  0
  9 13  1  1  0  0  0
 11 14  1  0  0  0  0
 12 15  1  0  0  0  0
 13 16  1  0  0  0  0
 14 17  2  0  0  0  0
 14 18  1  0  0  0  0
 15 19  1  0  0  0  0
 15 20  1  1  0  0  0
 17 21  1  0  0  0  0
 18 22  2  0  0  0  0
 19 23  1  0  0  0  0
 19 24  1  1  0  0  0
 20 25  1  0  0  0  0
 21 26  2  0  0  0  0
 23 27  1  1  0  0  0
  6  7  1  0  0  0  0
 12 10  1  6  0  0  0
 16 19  1  0  0  0  0
 22 26  1  0  0  0  0
 23 25  1  0  0  0  0
M  END
>  <MolRegNo>
2058267

>  <m>
=

>  <Value>
100

>  <Unit>
nM

>  <Type>
Ki

>  <pValue>
7

>  <Ligand Efficiency>
0.35

>  <Binding Efficiency>
19.31

>  <Surface Efficiency>
17.3

>  <Assay Index>
985353

>  <Assay Category>


>  <Assay Organism>
Homo sapiens

>  <Target ID>
65

>  <Target Name>
Cytochrome P450 19A1

>  <Target Organism>
Homo sapiens

>  <Target Description>
Target is a single protein chain

>  <Sequence Accession>
P11511

>  <Reference>


>  <Pubmed ID>
26469743

>  <DOI>
10.1016/j.ejmech.2015.09.038

$$$$
2058266
Actelion Java MolfileCreator 1.0

 27 31  0  0  0  0  0  0  0  0999 V2000
    0.0000   -0.0000   -0.0000 O   0  0  0  0  0  0  0  0  0  0  0  0
    1.0523    0.6274   -0.0000 C   0  0  0  0  0  0  0  0  0  0  0  0
    2.3071   -0.1012   -0.0000 C   0  0  0  0  0  0  0  0  0  0  0  0
    1.0321    2.1249   -0.0000 C   0  0  0  0  0  0  0  0  0  0  0  0
    3.5618    0.6881   -0.0000 C   0  0  0  0  0  0  0  0  0  0  0  0
    2.2666    2.8737   -0.0000 C   0  0  0  0  0  0  0  0  0  0  0  0
    3.5415    2.1856   -0.0000 C   0  0  0  0  0  0  0  0  0  0  0  0
    4.8367   -0.0405   -0.0000 C   0  0  0  0  0  0  0  0  0  0  0  0
    4.7962    2.9344   -0.0000 C   0  0  0  0  0  0  0  0  0  0  0  0
    6.0914    0.7488   -0.0000 C   0  0  0  0  0  0  0  0  0  0  0  0
    4.8367   -1.5583   -0.0000 C   0  0  0  0  0  0  0  0  0  0  0  0
    6.0510    2.2463   -0.0000 C   0  0  0  0  0  0  0  0  0  0  0  0
    4.7558    4.4522   -0.0000 C   0  0  0  0  0  0  0  0  0  0  0  0
    6.1521   -2.2868   -0.0000 C   0  0  0  0  0  0  0  0  0  0  0  0
    7.3057    2.9951   -0.0000 C   0  0  0  0  0  0  0  0  0  0  0  0
    6.0105    5.2212   -0.0000 C   0  0  0  0  0  0  0  0  0  0  0  0
    6.1521   -3.8046   -0.0000 C   0  0  0  0  0  0  0  0  0  0  0  0
    7.4473   -1.4773   -0.0000 C   0  0  0  0  0  0  0  0  0  0  0  0
    7.2854    4.4927   -0.0000 C   0  0  0  0  0  0  0  0  0  0  0  0
    9.8556    2.9951   -0.0000 C   0  0  0  0  0  0  0  0  0  0  0  0
    7.4676   -4.5332   -0.0000 C   0  0  0  0  0  0  0  0  0  0  0  0
    8.7628   -2.2059   -0.0000 C   0  0  0  0  0  0  0  0  0  0  0  0
    8.5402    5.2819   -0.0000 C   0  0  0  0  0  0  0  0  0  0  0  0
    7.2652    5.7474   -0.0000 C   0  0  0  0  0  0  0  0  0  0  0  0
    9.8353    4.5332   -0.0000 C   0  0  0  0  0  0  0  0  0  0  0  0
    8.7628   -3.7237   -0.0000 C   0  0  0  0  0  0  0  0  0  0  0  0
    8.5199    6.5367   -0.0000 O   0  0  0  0  0  0  0  0  0  0  0  0
  1  2  1  0  0  0  0
  2  3  2  0  0  0  0
  2  4  1  0  0  0  0
  3  5  1  0  0  0  0
  4  6  2  0  0  0  0
  5  7  2  0  0  0  0
  5  8  1  0  0  0  0
  7  9  1  0  0  0  0
  8 10  1  0  0  0  0
  8 11  1  6  0  0  0
  9 12  1  0  0  0  0
  9 13  1  1  0  0  0
 11 14  1  0  0  0  0
 12 15  1  0  0  0  0
 13 16  1  0  0  0  0
 14 17  2  0  0  0  0
 14 18  1  0  0  0  0
 15 19  1  0  0  0  0
 15 20  1  1  0  0  0
 17 21  1  0  0  0  0
 18 22  2  0  0  0  0
 19 23  1  0  0  0  0
 19 24  1  1  0  0  0
 20 25  1  0  0  0  0
 21 26  2  0  0  0  0
 23 27  1  1  0  0  0
  6  7  1  0  0  0  0
 12 10  1  6  0  0  0
 16 19  1  0  0  0  0
 22 26  1  0  0  0  0
 23 25  1  0  0  0  0
M  END
>  <MolRegNo>
2058266

>  <m>
=

>  <Value>
100

>  <Unit>
nM

>  <Type>
Ki

>  <pValue>
7

>  <Ligand Efficiency>
0.35

>  <Binding Efficiency>
19.31

>  <Surface Efficiency>
17.3

>  <Assay Index>
985353

>  <Assay Category>


>  <Assay Organism>
Homo sapiens

>  <Target ID>
65

>  <Target Name>
Cytochrome P450 19A1

>  <Target Organism>
Homo sapiens

>  <Target Description>
Target is a single protein chain

>  <Sequence Accession>
P11511

>  <Reference>


>  <Pubmed ID>
26469743

>  <DOI>
10.1016/j.ejmech.2015.09.038

$$$$
2058265
Actelion Java MolfileCreator 1.0

 21 24  0  0  0  0  0  0  0  0999 V2000
    0.0000   -0.0000   -0.0000 O   0  0  0  0  0  0  0  0  0  0  0  0
    0.0000   -1.2269   -0.0000 C   0  0  0  0  0  0  0  0  0  0  0  0
   -1.3111   -1.9848   -0.0000 C   0  0  0  0  0  0  0  0  0  0  0  0
    1.2871   -1.9727   -0.0000 C   0  0  0  0  0  0  0  0  0  0  0  0
   -1.3232   -3.4643   -0.0000 C   0  0  0  0  0  0  0  0  0  0  0  0
   -2.6103   -1.2149   -0.0000 C   0  0  0  0  0  0  0  0  0  0  0  0
   -1.3232   -0.7338   -0.0000 C   0  0  0  0  0  0  0  0  0  0  0  0
    1.2751   -3.4884   -0.0000 C   0  0  0  0  0  0  0  0  0  0  0  0
   -2.6223   -4.1860   -0.0000 C   0  0  0  0  0  0  0  0  0  0  0  0
   -3.9214   -1.9607   -0.0000 C   0  0  0  0  0  0  0  0  0  0  0  0
   -3.9214   -3.4523   -0.0000 C   0  0  0  0  0  0  0  0  0  0  0  0
   -2.6103   -5.6656   -0.0000 C   0  0  0  0  0  0  0  0  0  0  0  0
   -5.2205   -4.1740   -0.0000 C   0  0  0  0  0  0  0  0  0  0  0  0
   -3.9094   -6.4234   -0.0000 C   0  0  0  0  0  0  0  0  0  0  0  0
   -5.2325   -5.6535   -0.0000 C   0  0  0  0  0  0  0  0  0  0  0  0
   -6.5557   -3.4402   -0.0000 C   0  0  0  0  0  0  0  0  0  0  0  0
   -3.9094   -7.6503   -0.0000 C   0  0  0  0  0  0  0  0  0  0  0  0
   -6.5437   -6.4114   -0.0000 C   0  0  0  0  0  0  0  0  0  0  0  0
   -7.8308   -4.1620   -0.0000 C   0  0  0  0  0  0  0  0  0  0  0  0
   -7.8428   -5.6415   -0.0000 C   0  0  0  0  0  0  0  0  0  0  0  0
   -8.9254   -6.2430   -0.0000 O   0  0  0  0  0  0  0  0  0  0  0  0
  1  2  2  0  0  0  0
  2  3  1  0  0  0  0
  2  4  1  0  0  0  0
  3  5  1  0  0  0  0
  3  6  1  0  0  0  0
  3  7  1  1  0  0  0
  4  8  1  0  0  0  0
  5  9  1  0  0  0  0
  6 10  1  0  0  0  0
  9 11  1  0  0  0  0
  9 12  1  6  0  0  0
 11 13  1  0  0  0  0
 12 14  1  0  0  0  0
 13 15  2  0  0  0  0
 13 16  1  0  0  0  0
 14 17  1  1  0  0  0
 15 18  1  0  0  0  0
 16 19  2  0  0  0  0
 18 20  2  0  0  0  0
 20 21  1  0  0  0  0
  5  8  1  1  0  0  0
 11 10  1  1  0  0  0
 14 15  1  0  0  0  0
 19 20  1  0  0  0  0
M  END
>  <MolRegNo>
2058265

>  <m>
=

>  <Value>
100

>  <Unit>
nM

>  <Type>
Ki

>  <pValue>
7

>  <Ligand Efficiency>
0.46

>  <Binding Efficiency>
24.61

>  <Surface Efficiency>
18.77

>  <Assay Index>
985353

>  <Assay Category>


>  <Assay Organism>
Homo sapiens

>  <Target ID>
65

>  <Target Name>
Cytochrome P450 19A1

>  <Target Organism>
Homo sapiens

>  <Target Description>
Target is a single protein chain

>  <Sequence Accession>
P11511

>  <Reference>


>  <Pubmed ID>
26469743

>  <DOI>
10.1016/j.ejmech.2015.09.038

$$$$
2058264
Actelion Java MolfileCreator 1.0

 21 24  0  0  0  0  0  0  0  0999 V2000
    0.0000   -0.0000   -0.0000 O   0  0  0  0  0  0  0  0  0  0  0  0
    0.0000   -1.2269   -0.0000 C   0  0  0  0  0  0  0  0  0  0  0  0
   -1.3111   -1.9848   -0.0000 C   0  0  0  0  0  0  0  0  0  0  0  0
    1.2871   -1.9727   -0.0000 C   0  0  0  0  0  0  0  0  0  0  0  0
   -1.3232   -3.4643   -0.0000 C   0  0  0  0  0  0  0  0  0  0  0  0
   -2.6103   -1.2149   -0.0000 C   0  0  0  0  0  0  0  0  0  0  0  0
   -1.3232   -0.7338   -0.0000 C   0  0  0  0  0  0  0  0  0  0  0  0
    1.2751   -3.4884   -0.0000 C   0  0  0  0  0  0  0  0  0  0  0  0
   -2.6223   -4.1860   -0.0000 C   0  0  0  0  0  0  0  0  0  0  0  0
   -3.9214   -1.9607   -0.0000 C   0  0  0  0  0  0  0  0  0  0  0  0
   -3.9214   -3.4523   -0.0000 C   0  0  0  0  0  0  0  0  0  0  0  0
   -2.6103   -5.6656   -0.0000 C   0  0  0  0  0  0  0  0  0  0  0  0
   -5.2205   -4.1740   -0.0000 C   0  0  0  0  0  0  0  0  0  0  0  0
   -3.9094   -6.4234   -0.0000 C   0  0  0  0  0  0  0  0  0  0  0  0
   -5.2325   -5.6535   -0.0000 C   0  0  0  0  0  0  0  0  0  0  0  0
   -6.5557   -3.4402   -0.0000 C   0  0  0  0  0  0  0  0  0  0  0  0
   -3.9094   -7.6503   -0.0000 C   0  0  0  0  0  0  0  0  0  0  0  0
   -6.5437   -6.4114   -0.0000 C   0  0  0  0  0  0  0  0  0  0  0  0
   -7.8308   -4.1620   -0.0000 C   0  0  0  0  0  0  0  0  0  0  0  0
   -7.8428   -5.6415   -0.0000 C   0  0  0  0  0  0  0  0  0  0  0  0
   -8.9254   -6.2430   -0.0000 O   0  0  0  0  0  0  0  0  0  0  0  0
  1  2  2  0  0  0  0
  2  3  1  0  0  0  0
  2  4  1  0  0  0  0
  3  5  1  0  0  0  0
  3  6  1  0  0  0  0
  3  7  1  1  0  0  0
  4  8  1  0  0  0  0
  5  9  1  0  0  0  0
  6 10  1  0  0  0  0
  9 11  1  0  0  0  0
  9 12  1  6  0  0  0
 11 13  1  0  0  0  0
 12 14  1  0  0  0  0
 13 15  2  0  0  0  0
 13 16  1  0  0  0  0
 14 17  1  6  0  0  0
 15 18  1  0  0  0  0
 16 19  2  0  0  0  0
 18 20  2  0  0  0  0
 20 21  1  0  0  0  0
  5  8  1  1  0  0  0
 11 10  1  1  0  0  0
 14 15  1  0  0  0  0
 19 20  1  0  0  0  0
M  END
>  <MolRegNo>
2058264

>  <m>
=

>  <Value>
100

>  <Unit>
nM

>  <Type>
Ki

>  <pValue>
7

>  <Ligand Efficiency>
0.46

>  <Binding Efficiency>
24.61

>  <Surface Efficiency>
18.77

>  <Assay Index>
985353

>  <Assay Category>


>  <Assay Organism>
Homo sapiens

>  <Target ID>
65

>  <Target Name>
Cytochrome P450 19A1

>  <Target Organism>
Homo sapiens

>  <Target Description>
Target is a single protein chain

>  <Sequence Accession>
P11511

>  <Reference>


>  <Pubmed ID>
26469743

>  <DOI>
10.1016/j.ejmech.2015.09.038

$$$$
2058263
Actelion Java MolfileCreator 1.0

 21 24  0  0  0  0  0  0  0  0999 V2000
    0.0000   -0.0000   -0.0000 O   0  0  0  0  0  0  0  0  0  0  0  0
    1.0643    0.6345   -0.0000 C   0  0  0  0  0  0  0  0  0  0  0  0
    2.3333   -0.1023   -0.0000 C   0  0  0  0  0  0  0  0  0  0  0  0
    1.0438    2.1491   -0.0000 C   0  0  0  0  0  0  0  0  0  0  0  0
    3.6023    0.6959   -0.0000 C   0  0  0  0  0  0  0  0  0  0  0  0
    2.2924    2.9064   -0.0000 C   0  0  0  0  0  0  0  0  0  0  0  0
    3.5818    2.2105   -0.0000 C   0  0  0  0  0  0  0  0  0  0  0  0
    4.8918   -0.0409   -0.0000 C   0  0  0  0  0  0  0  0  0  0  0  0
    4.8508    2.9678   -0.0000 C   0  0  0  0  0  0  0  0  0  0  0  0
    6.1607    0.7573   -0.0000 C   0  0  0  0  0  0  0  0  0  0  0  0
    4.8918   -1.2690   -0.0000 C   0  0  0  0  0  0  0  0  0  0  0  0
    6.1198    2.2719   -0.0000 C   0  0  0  0  0  0  0  0  0  0  0  0
    4.8099    4.5029   -0.0000 C   0  0  0  0  0  0  0  0  0  0  0  0
    7.3888    3.0292   -0.0000 C   0  0  0  0  0  0  0  0  0  0  0  0
    6.0789    5.2806   -0.0000 C   0  0  0  0  0  0  0  0  0  0  0  0
    7.3683    4.5438   -0.0000 C   0  0  0  0  0  0  0  0  0  0  0  0
    9.9677    3.0292   -0.0000 C   0  0  0  0  0  0  0  0  0  0  0  0
    8.6373    5.3420   -0.0000 C   0  0  0  0  0  0  0  0  0  0  0  0
    7.3479    5.8128   -0.0000 C   0  0  0  0  0  0  0  0  0  0  0  0
    9.9472    4.5847   -0.0000 C   0  0  0  0  0  0  0  0  0  0  0  0
    8.6169    6.6110   -0.0000 O   0  0  0  0  0  0  0  0  0  0  0  0
  1  2  1  0  0  0  0
  2  3  2  0  0  0  0
  2  4  1  0  0  0  0
  3  5  1  0  0  0  0
  4  6  2  0  0  0  0
  5  7  2  0  0  0  0
  5  8  1  0  0  0  0
  7  9  1  0  0  0  0
  8 10  1  0  0  0  0
  8 11  1  1  0  0  0
  9 12  1  0  0  0  0
  9 13  1  1  0  0  0
 12 14  1  0  0  0  0
 13 15  1  0  0  0  0
 14 16  1  0  0  0  0
 14 17  1  1  0  0  0
 16 18  1  0  0  0  0
 16 19  1  1  0  0  0
 17 20  1  0  0  0  0
 18 21  1  1  0  0  0
  6  7  1  0  0  0  0
 12 10  1  6  0  0  0
 15 16  1  0  0  0  0
 18 20  1  0  0  0  0
M  END
>  <MolRegNo>
2058263

>  <m>
=

>  <Value>
100

>  <Unit>
nM

>  <Type>
Ki

>  <pValue>
7

>  <Ligand Efficiency>
0.46

>  <Binding Efficiency>
24.44

>  <Surface Efficiency>
17.3

>  <Assay Index>
985353

>  <Assay Category>


>  <Assay Organism>
Homo sapiens

>  <Target ID>
65

>  <Target Name>
Cytochrome P450 19A1

>  <Target Organism>
Homo sapiens

>  <Target Description>
Target is a single protein chain

>  <Sequence Accession>
P11511

>  <Reference>


>  <Pubmed ID>
26469743

>  <DOI>
10.1016/j.ejmech.2015.09.038

$$$$
2058262
Actelion Java MolfileCreator 1.0

 21 24  0  0  0  0  0  0  0  0999 V2000
    0.0000   -0.0000   -0.0000 O   0  0  0  0  0  0  0  0  0  0  0  0
    1.0643    0.6345   -0.0000 C   0  0  0  0  0  0  0  0  0  0  0  0
    2.3333   -0.1023   -0.0000 C   0  0  0  0  0  0  0  0  0  0  0  0
    1.0438    2.1491   -0.0000 C   0  0  0  0  0  0  0  0  0  0  0  0
    3.6023    0.6959   -0.0000 C   0  0  0  0  0  0  0  0  0  0  0  0
    2.2924    2.9064   -0.0000 C   0  0  0  0  0  0  0  0  0  0  0  0
    3.5818    2.2105   -0.0000 C   0  0  0  0  0  0  0  0  0  0  0  0
    4.8918   -0.0409   -0.0000 C   0  0  0  0  0  0  0  0  0  0  0  0
    4.8508    2.9678   -0.0000 C   0  0  0  0  0  0  0  0  0  0  0  0
    6.1607    0.7573   -0.0000 C   0  0  0  0  0  0  0  0  0  0  0  0
    4.8918   -1.2690   -0.0000 C   0  0  0  0  0  0  0  0  0  0  0  0
    6.1198    2.2719   -0.0000 C   0  0  0  0  0  0  0  0  0  0  0  0
    4.8099    4.5029   -0.0000 C   0  0  0  0  0  0  0  0  0  0  0  0
    7.3888    3.0292   -0.0000 C   0  0  0  0  0  0  0  0  0  0  0  0
    6.0789    5.2806   -0.0000 C   0  0  0  0  0  0  0  0  0  0  0  0
    7.3683    4.5438   -0.0000 C   0  0  0  0  0  0  0  0  0  0  0  0
    9.9677    3.0292   -0.0000 C   0  0  0  0  0  0  0  0  0  0  0  0
    8.6373    5.3420   -0.0000 C   0  0  0  0  0  0  0  0  0  0  0  0
    7.3479    5.8128   -0.0000 C   0  0  0  0  0  0  0  0  0  0  0  0
    9.9472    4.5847   -0.0000 C   0  0  0  0  0  0  0  0  0  0  0  0
    8.6169    6.6110   -0.0000 O   0  0  0  0  0  0  0  0  0  0  0  0
  1  2  1  0  0  0  0
  2  3  2  0  0  0  0
  2  4  1  0  0  0  0
  3  5  1  0  0  0  0
  4  6  2  0  0  0  0
  5  7  2  0  0  0  0
  5  8  1  0  0  0  0
  7  9  1  0  0  0  0
  8 10  1  0  0  0  0
  8 11  1  6  0  0  0
  9 12  1  0  0  0  0
  9 13  1  1  0  0  0
 12 14  1  0  0  0  0
 13 15  1  0  0  0  0
 14 16  1  0  0  0  0
 14 17  1  1  0  0  0
 16 18  1  0  0  0  0
 16 19  1  1  0  0  0
 17 20  1  0  0  0  0
 18 21  1  1  0  0  0
  6  7  1  0  0  0  0
 12 10  1  6  0  0  0
 15 16  1  0  0  0  0
 18 20  1  0  0  0  0
M  END
>  <MolRegNo>
2058262

>  <m>
=

>  <Value>
100

>  <Unit>
nM

>  <Type>
Ki

>  <pValue>
7

>  <Ligand Efficiency>
0.46

>  <Binding Efficiency>
24.44

>  <Surface Efficiency>
17.3

>  <Assay Index>
985353

>  <Assay Category>


>  <Assay Organism>
Homo sapiens

>  <Target ID>
65

>  <Target Name>
Cytochrome P450 19A1

>  <Target Organism>
Homo sapiens

>  <Target Description>
Target is a single protein chain

>  <Sequence Accession>
P11511

>  <Reference>


>  <Pubmed ID>
26469743

>  <DOI>
10.1016/j.ejmech.2015.09.038

$$$$
2058261
Actelion Java MolfileCreator 1.0

 29 33  0  0  0  0  0  0  0  0999 V2000
    0.0000   -0.0000   -0.0000 Br  0  0  0  0  0  0  0  0  0  0  0  0
   -0.0404    1.2510   -0.0000 C   0  0  0  0  0  0  0  0  0  0  0  0
    1.2510    2.0581   -0.0000 C   0  0  0  0  0  0  0  0  0  0  0  0
   -1.3922    2.0177   -0.0000 C   0  0  0  0  0  0  0  0  0  0  0  0
    1.2106    3.6117   -0.0000 C   0  0  0  0  0  0  0  0  0  0  0  0
   -1.4326    3.5714   -0.0000 C   0  0  0  0  0  0  0  0  0  0  0  0
   -0.1412    4.3785   -0.0000 C   0  0  0  0  0  0  0  0  0  0  0  0
   -0.1816    5.9321   -0.0000 S   0  0  0  0  0  0  0  0  0  0  0  0
   -1.5335    6.6988   -0.0000 C   0  0  0  0  0  0  0  0  0  0  0  0
   -1.5738    8.1919   -0.0000 C   0  0  0  0  0  0  0  0  0  0  0  0
   -2.8248    5.9523   -0.0000 C   0  0  0  0  0  0  0  0  0  0  0  0
   -2.8652    8.9183   -0.0000 C   0  0  0  0  0  0  0  0  0  0  0  0
   -0.3228    8.9385   -0.0000 C   0  0  0  0  0  0  0  0  0  0  0  0
   -4.1363    6.7190   -0.0000 C   0  0  0  0  0  0  0  0  0  0  0  0
   -4.1565    8.2121   -0.0000 C   0  0  0  0  0  0  0  0  0  0  0  0
   -2.9055   10.4316   -0.0000 C   0  0  0  0  0  0  0  0  0  0  0  0
   -0.3430   10.4316   -0.0000 C   0  0  0  0  0  0  0  0  0  0  0  0
    2.2195    8.9385   -0.0000 C   0  0  0  0  0  0  0  0  0  0  0  0
   -5.4277    5.9725   -0.0000 C   0  0  0  0  0  0  0  0  0  0  0  0
   -5.4680    8.9385   -0.0000 C   0  0  0  0  0  0  0  0  0  0  0  0
   -4.1969    9.4631   -0.0000 C   0  0  0  0  0  0  0  0  0  0  0  0
   -1.6545   11.1984   -0.0000 C   0  0  0  0  0  0  0  0  0  0  0  0
    0.9080   11.2185   -0.0000 C   0  0  0  0  0  0  0  0  0  0  0  0
   -0.3632   11.6826   -0.0000 C   0  0  0  0  0  0  0  0  0  0  0  0
    2.1993   10.4720   -0.0000 C   0  0  0  0  0  0  0  0  0  0  0  0
   -6.7190    6.7392   -0.0000 C   0  0  0  0  0  0  0  0  0  0  0  0
   -6.7392    8.2323   -0.0000 C   0  0  0  0  0  0  0  0  0  0  0  0
    0.8878   12.4695   -0.0000 O   0  0  0  0  0  0  0  0  0  0  0  0
   -7.8086    6.1540   -0.0000 O   0  0  0  0  0  0  0  0  0  0  0  0
  1  2  1  0  0  0  0
  2  3  2  0  0  0  0
  2  4  1  0  0  0  0
  3  5  1  0  0  0  0
  4  6  2  0  0  0  0
  5  7  2  0  0  0  0
  7  8  1  0  0  0  0
  9  8  1  6  0  0  0
 10  9  1  6  0  0  0
  9 11  1  0  0  0  0
 10 12  1  0  0  0  0
 10 13  1  0  0  0  0
 11 14  1  0  0  0  0
 12 15  1  0  0  0  0
 12 16  1  1  0  0  0
 13 17  1  0  0  0  0
 13 18  1  1  0  0  0
 14 19  2  0  0  0  0
 15 20  1  0  0  0  0
 15 21  1  1  0  0  0
 16 22  1  0  0  0  0
 17 23  1  0  0  0  0
 17 24  1  1  0  0  0
 18 25  1  0  0  0  0
 19 26  1  0  0  0  0
 20 27  2  0  0  0  0
 23 28  2  0  0  0  0
 26 29  2  0  0  0  0
  6  7  1  0  0  0  0
 14 15  1  0  0  0  0
 17 22  1  0  0  0  0
 23 25  1  0  0  0  0
 26 27  1  0  0  0  0
M  END
>  <MolRegNo>
2058261

>  <m>
=

>  <Value>
12

>  <Unit>
nM

>  <Type>
Ki

>  <pValue>
7.92

>  <Ligand Efficiency>
0.37

>  <Binding Efficiency>
16.8

>  <Surface Efficiency>
23.2

>  <Assay Index>
985542

>  <Assay Category>


>  <Assay Organism>
Homo sapiens

>  <Target ID>
65

>  <Target Name>
Cytochrome P450 19A1

>  <Target Organism>
Homo sapiens

>  <Target Description>
Target is a single protein chain

>  <Sequence Accession>
P11511

>  <Reference>


>  <Pubmed ID>
26469743

>  <DOI>
10.1016/j.ejmech.2015.09.038

$$$$
2058275
Actelion Java MolfileCreator 1.0

 21 24  0  0  0  0  0  0  0  0999 V2000
    0.0000   -0.0000   -0.0000 F   0  0  0  0  0  0  0  0  0  0  0  0
    1.0478   -0.5958   -0.0000 C   0  0  0  0  0  0  0  0  0  0  0  0
    1.0272   -2.0750   -0.0000 C   0  0  0  0  0  0  0  0  0  0  0  0
    2.3010    0.1644   -0.0000 C   0  0  0  0  0  0  0  0  0  0  0  0
   -0.0822   -2.6708   -0.0000 O   0  0  0  0  0  0  0  0  0  0  0  0
    2.3010   -2.8146   -0.0000 C   0  0  0  0  0  0  0  0  0  0  0  0
    3.5953   -0.5342   -0.0000 C   0  0  0  0  0  0  0  0  0  0  0  0
    3.5748   -2.0134   -0.0000 C   0  0  0  0  0  0  0  0  0  0  0  0
    4.8691    0.2260   -0.0000 C   0  0  0  0  0  0  0  0  0  0  0  0
    4.8691   -2.7530   -0.0000 C   0  0  0  0  0  0  0  0  0  0  0  0
    6.1429   -0.4725   -0.0000 C   0  0  0  0  0  0  0  0  0  0  0  0
    4.8280    1.7668   -0.0000 C   0  0  0  0  0  0  0  0  0  0  0  0
    6.1429   -1.9517   -0.0000 C   0  0  0  0  0  0  0  0  0  0  0  0
    7.4166    0.2876   -0.0000 C   0  0  0  0  0  0  0  0  0  0  0  0
    6.1018    2.5475   -0.0000 C   0  0  0  0  0  0  0  0  0  0  0  0
    7.3961    1.8079   -0.0000 C   0  0  0  0  0  0  0  0  0  0  0  0
   10.0053    0.2876   -0.0000 C   0  0  0  0  0  0  0  0  0  0  0  0
    8.6699    2.6092   -0.0000 C   0  0  0  0  0  0  0  0  0  0  0  0
    7.3755    3.0817   -0.0000 C   0  0  0  0  0  0  0  0  0  0  0  0
    9.9847    1.8490   -0.0000 C   0  0  0  0  0  0  0  0  0  0  0  0
    8.6493    3.8829   -0.0000 O   0  0  0  0  0  0  0  0  0  0  0  0
  1  2  1  0  0  0  0
  2  3  2  0  0  0  0
  2  4  1  0  0  0  0
  3  5  1  0  0  0  0
  3  6  1  0  0  0  0
  4  7  2  0  0  0  0
  6  8  2  0  0  0  0
  7  9  1  0  0  0  0
  8 10  1  0  0  0  0
  9 11  1  0  0  0  0
  9 12  1  1  0  0  0
 10 13  1  0  0  0  0
 11 14  1  0  0  0  0
 12 15  1  0  0  0  0
 14 16  1  0  0  0  0
 14 17  1  1  0  0  0
 16 18  1  0  0  0  0
 16 19  1  1  0  0  0
 17 20  1  0  0  0  0
 18 21  2  0  0  0  0
  7  8  1  0  0  0  0
 11 13  1  6  0  0  0
 15 16  1  0  0  0  0
 18 20  1  0  0  0  0
M  END
>  <MolRegNo>
2058275

>  <m>
=

>  <Value>
100

>  <Unit>
nM

>  <Type>
Ki

>  <pValue>
7

>  <Ligand Efficiency>
0.46

>  <Binding Efficiency>
24.28

>  <Surface Efficiency>
18.77

>  <Assay Index>
985353

>  <Assay Category>


>  <Assay Organism>
Homo sapiens

>  <Target ID>
65

>  <Target Name>
Cytochrome P450 19A1

>  <Target Organism>
Homo sapiens

>  <Target Description>
Target is a single protein chain

>  <Sequence Accession>
P11511

>  <Reference>


>  <Pubmed ID>
26469743

>  <DOI>
10.1016/j.ejmech.2015.09.038

$$$$
611733
Actelion Java MolfileCreator 1.0

 21 24  0  0  0  0  0  0  0  0999 V2000
    0.0000   -0.0000   -0.0000 Cl  0  0  0  0  0  0  0  0  0  0  0  0
    1.2856   -0.7380   -0.0000 C   0  0  0  0  0  0  0  0  0  0  0  0
    1.2737   -2.2260   -0.0000 C   0  0  0  0  0  0  0  0  0  0  0  0
    2.5594    0.0238   -0.0000 C   0  0  0  0  0  0  0  0  0  0  0  0
   -0.0357   -2.9641   -0.0000 O   0  0  0  0  0  0  0  0  0  0  0  0
    2.5474   -2.9641   -0.0000 C   0  0  0  0  0  0  0  0  0  0  0  0
    3.8450   -0.7023   -0.0000 C   0  0  0  0  0  0  0  0  0  0  0  0
    3.8331   -2.2141   -0.0000 C   0  0  0  0  0  0  0  0  0  0  0  0
    5.1306    0.0714   -0.0000 C   0  0  0  0  0  0  0  0  0  0  0  0
    5.1187   -2.9522   -0.0000 C   0  0  0  0  0  0  0  0  0  0  0  0
    6.4281   -0.6785   -0.0000 C   0  0  0  0  0  0  0  0  0  0  0  0
    5.1187    1.5951   -0.0000 C   0  0  0  0  0  0  0  0  0  0  0  0
    6.4162   -2.1903   -0.0000 C   0  0  0  0  0  0  0  0  0  0  0  0
    7.7138    0.0833   -0.0000 C   0  0  0  0  0  0  0  0  0  0  0  0
    6.4281    2.3570   -0.0000 C   0  0  0  0  0  0  0  0  0  0  0  0
    7.7257    1.6070   -0.0000 C   0  0  0  0  0  0  0  0  0  0  0  0
    9.1303   -0.3928   -0.0000 C   0  0  0  0  0  0  0  0  0  0  0  0
    9.1541    2.0713   -0.0000 C   0  0  0  0  0  0  0  0  0  0  0  0
    7.7019    3.1188   -0.0000 C   0  0  0  0  0  0  0  0  0  0  0  0
   10.0231    0.8333   -0.0000 C   0  0  0  0  0  0  0  0  0  0  0  0
    9.6184    3.4998   -0.0000 O   0  0  0  0  0  0  0  0  0  0  0  0
  1  2  1  0  0  0  0
  2  3  2  0  0  0  0
  2  4  1  0  0  0  0
  3  5  1  0  0  0  0
  3  6  1  0  0  0  0
  4  7  2  0  0  0  0
  6  8  2  0  0  0  0
  7  9  1  0  0  0  0
  8 10  1  0  0  0  0
  9 11  1  0  0  0  0
  9 12  1  1  0  0  0
 10 13  1  0  0  0  0
 11 14  1  0  0  0  0
 12 15  1  0  0  0  0
 14 16  1  0  0  0  0
 14 17  1  1  0  0  0
 16 18  1  0  0  0  0
 16 19  1  1  0  0  0
 17 20  1  0  0  0  0
 18 21  2  0  0  0  0
  7  8  1  0  0  0  0
 11 13  1  6  0  0  0
 15 16  1  0  0  0  0
 18 20  1  0  0  0  0
M  END
>  <MolRegNo>
611733

>  <m>
=

>  <Value>
100

>  <Unit>
nM

>  <Type>
Ki

>  <pValue>
7

>  <Ligand Efficiency>
0.46

>  <Binding Efficiency>
22.96

>  <Surface Efficiency>
18.77

>  <Assay Index>
985353

>  <Assay Category>


>  <Assay Organism>
Homo sapiens

>  <Target ID>
65

>  <Target Name>
Cytochrome P450 19A1

>  <Target Organism>
Homo sapiens

>  <Target Description>
Target is a single protein chain

>  <Sequence Accession>
P11511

>  <Reference>


>  <Pubmed ID>
26469743

>  <DOI>
10.1016/j.ejmech.2015.09.038

$$$$
318621
Actelion Java MolfileCreator 1.0

 21 24  0  0  0  0  0  0  0  0999 V2000
    0.0000   -0.0000   -0.0000 Br  0  0  0  0  0  0  0  0  0  0  0  0
    1.2856   -0.7380   -0.0000 C   0  0  0  0  0  0  0  0  0  0  0  0
    1.2737   -2.2260   -0.0000 C   0  0  0  0  0  0  0  0  0  0  0  0
    2.5594    0.0238   -0.0000 C   0  0  0  0  0  0  0  0  0  0  0  0
   -0.0357   -2.9641   -0.0000 O   0  0  0  0  0  0  0  0  0  0  0  0
    2.5474   -2.9641   -0.0000 C   0  0  0  0  0  0  0  0  0  0  0  0
    3.8450   -0.7023   -0.0000 C   0  0  0  0  0  0  0  0  0  0  0  0
    3.8331   -2.2141   -0.0000 C   0  0  0  0  0  0  0  0  0  0  0  0
    5.1306    0.0714   -0.0000 C   0  0  0  0  0  0  0  0  0  0  0  0
    5.1187   -2.9522   -0.0000 C   0  0  0  0  0  0  0  0  0  0  0  0
    6.4281   -0.6785   -0.0000 C   0  0  0  0  0  0  0  0  0  0  0  0
    5.1187    1.5951   -0.0000 C   0  0  0  0  0  0  0  0  0  0  0  0
    6.4162   -2.1903   -0.0000 C   0  0  0  0  0  0  0  0  0  0  0  0
    7.7138    0.0833   -0.0000 C   0  0  0  0  0  0  0  0  0  0  0  0
    6.4281    2.3570   -0.0000 C   0  0  0  0  0  0  0  0  0  0  0  0
    7.7257    1.6070   -0.0000 C   0  0  0  0  0  0  0  0  0  0  0  0
    9.1303   -0.3928   -0.0000 C   0  0  0  0  0  0  0  0  0  0  0  0
    9.1541    2.0713   -0.0000 C   0  0  0  0  0  0  0  0  0  0  0  0
    7.7019    3.1188   -0.0000 C   0  0  0  0  0  0  0  0  0  0  0  0
   10.0231    0.8333   -0.0000 C   0  0  0  0  0  0  0  0  0  0  0  0
    9.6184    3.4998   -0.0000 O   0  0  0  0  0  0  0  0  0  0  0  0
  1  2  1  0  0  0  0
  2  3  2  0  0  0  0
  2  4  1  0  0  0  0
  3  5  1  0  0  0  0
  3  6  1  0  0  0  0
  4  7  2  0  0  0  0
  6  8  2  0  0  0  0
  7  9  1  0  0  0  0
  8 10  1  0  0  0  0
  9 11  1  0  0  0  0
  9 12  1  1  0  0  0
 10 13  1  0  0  0  0
 11 14  1  0  0  0  0
 12 15  1  0  0  0  0
 14 16  1  0  0  0  0
 14 17  1  1  0  0  0
 16 18  1  0  0  0  0
 16 19  1  1  0  0  0
 17 20  1  0  0  0  0
 18 21  2  0  0  0  0
  7  8  1  0  0  0  0
 11 13  1  6  0  0  0
 15 16  1  0  0  0  0
 18 20  1  0  0  0  0
M  END
>  <MolRegNo>
318621

>  <m>
=

>  <Value>
100

>  <Unit>
nM

>  <Type>
Ki

>  <pValue>
7

>  <Ligand Efficiency>
0.46

>  <Binding Efficiency>
20.04

>  <Surface Efficiency>
18.77

>  <Assay Index>
985353

>  <Assay Category>


>  <Assay Organism>
Homo sapiens

>  <Target ID>
65

>  <Target Name>
Cytochrome P450 19A1

>  <Target Organism>
Homo sapiens

>  <Target Description>
Target is a single protein chain

>  <Sequence Accession>
P11511

>  <Reference>


>  <Pubmed ID>
26469743

>  <DOI>
10.1016/j.ejmech.2015.09.038

$$$$
2058276
Actelion Java MolfileCreator 1.0

 21 24  0  0  0  0  0  0  0  0999 V2000
    0.0000   -0.0000   -0.0000 O   0  0  0  0  0  0  0  0  0  0  0  0
    0.0000   -1.2261   -0.0000 C   0  0  0  0  0  0  0  0  0  0  0  0
   -1.3103   -1.9835   -0.0000 C   0  0  0  0  0  0  0  0  0  0  0  0
    1.2862   -1.9714   -0.0000 C   0  0  0  0  0  0  0  0  0  0  0  0
   -1.3223   -3.4621   -0.0000 C   0  0  0  0  0  0  0  0  0  0  0  0
   -2.6086   -1.2141   -0.0000 C   0  0  0  0  0  0  0  0  0  0  0  0
   -1.3223   -0.7333   -0.0000 C   0  0  0  0  0  0  0  0  0  0  0  0
    1.2742   -3.4861   -0.0000 C   0  0  0  0  0  0  0  0  0  0  0  0
   -2.6206   -4.1833   -0.0000 C   0  0  0  0  0  0  0  0  0  0  0  0
   -3.9189   -1.9594   -0.0000 C   0  0  0  0  0  0  0  0  0  0  0  0
   -3.9189   -3.4500   -0.0000 C   0  0  0  0  0  0  0  0  0  0  0  0
   -2.6086   -5.6619   -0.0000 C   0  0  0  0  0  0  0  0  0  0  0  0
   -5.2171   -4.1713   -0.0000 C   0  0  0  0  0  0  0  0  0  0  0  0
   -3.9068   -6.4192   -0.0000 C   0  0  0  0  0  0  0  0  0  0  0  0
   -5.2291   -5.6499   -0.0000 C   0  0  0  0  0  0  0  0  0  0  0  0
   -6.5515   -3.4380   -0.0000 C   0  0  0  0  0  0  0  0  0  0  0  0
   -6.5394   -6.4072   -0.0000 C   0  0  0  0  0  0  0  0  0  0  0  0
   -7.8257   -4.1593   -0.0000 C   0  0  0  0  0  0  0  0  0  0  0  0
   -7.8377   -5.6379   -0.0000 C   0  0  0  0  0  0  0  0  0  0  0  0
   -8.9076   -3.5342   -0.0000 C   0  0  0  0  0  0  0  0  0  0  0  0
   -8.9196   -6.2389   -0.0000 O   0  0  0  0  0  0  0  0  0  0  0  0
  1  2  2  0  0  0  0
  2  3  1  0  0  0  0
  2  4  1  0  0  0  0
  3  5  1  0  0  0  0
  3  6  1  0  0  0  0
  3  7  1  1  0  0  0
  4  8  1  0  0  0  0
  5  9  1  0  0  0  0
  6 10  1  0  0  0  0
  9 11  1  0  0  0  0
  9 12  1  6  0  0  0
 11 13  1  0  0  0  0
 12 14  1  0  0  0  0
 13 15  2  0  0  0  0
 13 16  1  0  0  0  0
 15 17  1  0  0  0  0
 16 18  2  0  0  0  0
 17 19  2  0  0  0  0
 18 20  1  0  0  0  0
 19 21  1  0  0  0  0
  5  8  1  1  0  0  0
 11 10  1  1  0  0  0
 14 15  1  0  0  0  0
 18 19  1  0  0  0  0
M  END
>  <MolRegNo>
2058276

>  <m>
=

>  <Value>
100

>  <Unit>
nM

>  <Type>
Ki

>  <pValue>
7

>  <Ligand Efficiency>
0.46

>  <Binding Efficiency>
24.61

>  <Surface Efficiency>
18.77

>  <Assay Index>
985353

>  <Assay Category>


>  <Assay Organism>
Homo sapiens

>  <Target ID>
65

>  <Target Name>
Cytochrome P450 19A1

>  <Target Organism>
Homo sapiens

>  <Target Description>
Target is a single protein chain

>  <Sequence Accession>
P11511

>  <Reference>


>  <Pubmed ID>
26469743

>  <DOI>
10.1016/j.ejmech.2015.09.038

$$$$
1050225
Actelion Java MolfileCreator 1.0

 21 24  0  0  1  0  0  0  0  0999 V2000
    0.0000   -0.0000   -0.0000 F   0  0  0  0  0  0  0  0  0  0  0  0
    1.2929   -0.7354   -0.0000 C   0  0  0  0  0  0  0  0  0  0  0  0
    1.2810   -2.2300   -0.0000 C   0  0  0  0  0  0  0  0  0  0  0  0
    2.5739    0.0356   -0.0000 C   0  0  0  0  0  0  0  0  0  0  0  0
   -0.0237   -2.9772   -0.0000 O   0  0  0  0  0  0  0  0  0  0  0  0
    2.5739   -2.9654   -0.0000 C   0  0  0  0  0  0  0  0  0  0  0  0
    3.8787   -0.6998   -0.0000 C   0  0  0  0  0  0  0  0  0  0  0  0
    3.8550   -2.1944   -0.0000 C   0  0  0  0  0  0  0  0  0  0  0  0
    5.1597    0.0830   -0.0000 C   0  0  0  0  0  0  0  0  0  0  0  0
    5.1597   -2.9298   -0.0000 C   0  0  0  0  0  0  0  0  0  0  0  0
    6.4526   -0.6642   -0.0000 C   0  0  0  0  0  0  0  0  0  0  0  0
    5.1479    1.6013   -0.0000 C   0  0  0  0  0  0  0  0  0  0  0  0
    6.4408   -2.1588   -0.0000 C   0  0  0  0  0  0  0  0  0  0  0  0
    7.7574    0.1068   -0.0000 C   0  0  0  0  0  0  0  0  0  0  0  0
    6.4526    2.3604   -0.0000 C   0  0  0  0  0  0  0  0  0  0  0  0
    7.7455    1.6250   -0.0000 C   0  0  0  0  0  0  0  0  0  0  0  0
    9.1689   -0.3558   -0.0000 C   0  0  0  0  0  0  0  0  0  0  0  0
    9.1689    2.0876   -0.0000 C   0  0  0  0  0  0  0  0  0  0  0  0
    7.7218    3.1314   -0.0000 C   0  0  0  0  0  0  0  0  0  0  0  0
   10.0466    0.8659   -0.0000 C   0  0  0  0  0  0  0  0  0  0  0  0
    9.6196    3.5347   -0.0000 O   0  0  0  0  0  0  0  0  0  0  0  0
  1  2  1  0  0  0  0
  2  3  2  0  0  0  0
  2  4  1  0  0  0  0
  3  5  1  0  0  0  0
  3  6  1  0  0  0  0
  4  7  2  0  0  0  0
  6  8  2  0  0  0  0
  7  9  1  0  0  0  0
  8 10  1  0  0  0  0
  9 11  1  0  0  0  0
  9 12  1  1  0  0  0
 10 13  1  0  0  0  0
 11 14  1  0  0  0  0
 12 15  1  0  0  0  0
 14 16  1  0  0  0  0
 14 17  1  1  0  0  0
 16 18  1  0  0  0  0
 16 19  1  1  0  0  0
 17 20  1  0  0  0  0
 18 21  1  1  0  0  0
  7  8  1  0  0  0  0
 11 13  1  6  0  0  0
 15 16  1  0  0  0  0
 18 20  1  0  0  0  0
M  END
>  <MolRegNo>
1050225

>  <m>
=

>  <Value>
100

>  <Unit>
nM

>  <Type>
Ki

>  <pValue>
7

>  <Ligand Efficiency>
0.46

>  <Binding Efficiency>
24.11

>  <Surface Efficiency>
17.3

>  <Assay Index>
985353

>  <Assay Category>


>  <Assay Organism>
Homo sapiens

>  <Target ID>
65

>  <Target Name>
Cytochrome P450 19A1

>  <Target Organism>
Homo sapiens

>  <Target Description>
Target is a single protein chain

>  <Sequence Accession>
P11511

>  <Reference>


>  <Pubmed ID>
26469743

>  <DOI>
10.1016/j.ejmech.2015.09.038

$$$$
2058277
Actelion Java MolfileCreator 1.0

 21 24  0  0  0  0  0  0  0  0999 V2000
    0.0000   -0.0000   -0.0000 Cl  0  0  0  0  0  0  0  0  0  0  0  0
    1.0478   -0.5958   -0.0000 C   0  0  0  0  0  0  0  0  0  0  0  0
    1.0272   -2.0750   -0.0000 C   0  0  0  0  0  0  0  0  0  0  0  0
    2.3010    0.1644   -0.0000 C   0  0  0  0  0  0  0  0  0  0  0  0
   -0.0822   -2.6708   -0.0000 O   0  0  0  0  0  0  0  0  0  0  0  0
    2.3010   -2.8146   -0.0000 C   0  0  0  0  0  0  0  0  0  0  0  0
    3.5953   -0.5342   -0.0000 C   0  0  0  0  0  0  0  0  0  0  0  0
    3.5748   -2.0134   -0.0000 C   0  0  0  0  0  0  0  0  0  0  0  0
    4.8691    0.2260   -0.0000 C   0  0  0  0  0  0  0  0  0  0  0  0
    4.8691   -2.7530   -0.0000 C   0  0  0  0  0  0  0  0  0  0  0  0
    6.1429   -0.4725   -0.0000 C   0  0  0  0  0  0  0  0  0  0  0  0
    4.8280    1.7668   -0.0000 C   0  0  0  0  0  0  0  0  0  0  0  0
    6.1429   -1.9517   -0.0000 C   0  0  0  0  0  0  0  0  0  0  0  0
    7.4166    0.2876   -0.0000 C   0  0  0  0  0  0  0  0  0  0  0  0
    6.1018    2.5475   -0.0000 C   0  0  0  0  0  0  0  0  0  0  0  0
    7.3961    1.8079   -0.0000 C   0  0  0  0  0  0  0  0  0  0  0  0
   10.0053    0.2876   -0.0000 C   0  0  0  0  0  0  0  0  0  0  0  0
    8.6699    2.6092   -0.0000 C   0  0  0  0  0  0  0  0  0  0  0  0
    7.3755    3.0817   -0.0000 C   0  0  0  0  0  0  0  0  0  0  0  0
    9.9847    1.8490   -0.0000 C   0  0  0  0  0  0  0  0  0  0  0  0
    8.6493    3.8829   -0.0000 O   0  0  0  0  0  0  0  0  0  0  0  0
  1  2  1  0  0  0  0
  2  3  2  0  0  0  0
  2  4  1  0  0  0  0
  3  5  1  0  0  0  0
  3  6  1  0  0  0  0
  4  7  2  0  0  0  0
  6  8  2  0  0  0  0
  7  9  1  0  0  0  0
  8 10  1  0  0  0  0
  9 11  1  0  0  0  0
  9 12  1  1  0  0  0
 10 13  1  0  0  0  0
 11 14  1  0  0  0  0
 12 15  1  0  0  0  0
 14 16  1  0  0  0  0
 14 17  1  1  0  0  0
 16 18  1  0  0  0  0
 16 19  1  1  0  0  0
 17 20  1  0  0  0  0
 18 21  1  1  0  0  0
  7  8  1  0  0  0  0
 11 13  1  6  0  0  0
 15 16  1  0  0  0  0
 18 20  1  0  0  0  0
M  END
>  <MolRegNo>
2058277

>  <m>
=

>  <Value>
100

>  <Unit>
nM

>  <Type>
Ki

>  <pValue>
7

>  <Ligand Efficiency>
0.46

>  <Binding Efficiency>
22.81

>  <Surface Efficiency>
17.3

>  <Assay Index>
985353

>  <Assay Category>


>  <Assay Organism>
Homo sapiens

>  <Target ID>
65

>  <Target Name>
Cytochrome P450 19A1

>  <Target Organism>
Homo sapiens

>  <Target Description>
Target is a single protein chain

>  <Sequence Accession>
P11511

>  <Reference>


>  <Pubmed ID>
26469743

>  <DOI>
10.1016/j.ejmech.2015.09.038

$$$$
1050955
Actelion Java MolfileCreator 1.0

 21 24  0  0  1  0  0  0  0  0999 V2000
    0.0000   -0.0000   -0.0000 Br  0  0  0  0  0  0  0  0  0  0  0  0
    1.2929   -0.7354   -0.0000 C   0  0  0  0  0  0  0  0  0  0  0  0
    1.2810   -2.2300   -0.0000 C   0  0  0  0  0  0  0  0  0  0  0  0
    2.5739    0.0356   -0.0000 C   0  0  0  0  0  0  0  0  0  0  0  0
   -0.0237   -2.9772   -0.0000 O   0  0  0  0  0  0  0  0  0  0  0  0
    2.5739   -2.9654   -0.0000 C   0  0  0  0  0  0  0  0  0  0  0  0
    3.8787   -0.6998   -0.0000 C   0  0  0  0  0  0  0  0  0  0  0  0
    3.8550   -2.1944   -0.0000 C   0  0  0  0  0  0  0  0  0  0  0  0
    5.1597    0.0830   -0.0000 C   0  0  0  0  0  0  0  0  0  0  0  0
    5.1597   -2.9298   -0.0000 C   0  0  0  0  0  0  0  0  0  0  0  0
    6.4526   -0.6642   -0.0000 C   0  0  0  0  0  0  0  0  0  0  0  0
    5.1479    1.6013   -0.0000 C   0  0  0  0  0  0  0  0  0  0  0  0
    6.4408   -2.1588   -0.0000 C   0  0  0  0  0  0  0  0  0  0  0  0
    7.7574    0.1068   -0.0000 C   0  0  0  0  0  0  0  0  0  0  0  0
    6.4526    2.3604   -0.0000 C   0  0  0  0  0  0  0  0  0  0  0  0
    7.7455    1.6250   -0.0000 C   0  0  0  0  0  0  0  0  0  0  0  0
    9.1689   -0.3558   -0.0000 C   0  0  0  0  0  0  0  0  0  0  0  0
    9.1689    2.0876   -0.0000 C   0  0  0  0  0  0  0  0  0  0  0  0
    7.7218    3.1314   -0.0000 C   0  0  0  0  0  0  0  0  0  0  0  0
   10.0466    0.8659   -0.0000 C   0  0  0  0  0  0  0  0  0  0  0  0
    9.6196    3.5347   -0.0000 O   0  0  0  0  0  0  0  0  0  0  0  0
  1  2  1  0  0  0  0
  2  3  2  0  0  0  0
  2  4  1  0  0  0  0
  3  5  1  0  0  0  0
  3  6  1  0  0  0  0
  4  7  2  0  0  0  0
  6  8  2  0  0  0  0
  7  9  1  0  0  0  0
  8 10  1  0  0  0  0
  9 11  1  0  0  0  0
  9 12  1  1  0  0  0
 10 13  1  0  0  0  0
 11 14  1  0  0  0  0
 12 15  1  0  0  0  0
 14 16  1  0  0  0  0
 14 17  1  1  0  0  0
 16 18  1  0  0  0  0
 16 19  1  1  0  0  0
 17 20  1  0  0  0  0
 18 21  1  1  0  0  0
  7  8  1  0  0  0  0
 11 13  1  6  0  0  0
 15 16  1  0  0  0  0
 18 20  1  0  0  0  0
M  END
>  <MolRegNo>
1050955

>  <m>
=

>  <Value>
100

>  <Unit>
nM

>  <Type>
Ki

>  <pValue>
7

>  <Ligand Efficiency>
0.46

>  <Binding Efficiency>
19.93

>  <Surface Efficiency>
17.3

>  <Assay Index>
985353

>  <Assay Category>


>  <Assay Organism>
Homo sapiens

>  <Target ID>
65

>  <Target Name>
Cytochrome P450 19A1

>  <Target Organism>
Homo sapiens

>  <Target Description>
Target is a single protein chain

>  <Sequence Accession>
P11511

>  <Reference>


>  <Pubmed ID>
26469743

>  <DOI>
10.1016/j.ejmech.2015.09.038

$$$$
388017
Actelion Java MolfileCreator 1.0

 21 24  0  0  1  0  0  0  0  0999 V2000
    0.0000   -0.0000   -0.0000 O   0  0  0  0  0  0  0  0  0  0  0  0
    1.2983    0.7694   -0.0000 C   0  0  0  0  0  0  0  0  0  0  0  0
    1.2863    2.2720   -0.0000 C   0  0  0  0  0  0  0  0  0  0  0  0
    2.5725    0.0481   -0.0000 C   0  0  0  0  0  0  0  0  0  0  0  0
    2.5605    3.0413   -0.0000 C   0  0  0  0  0  0  0  0  0  0  0  0
   -0.0481    3.0413   -0.0000 C   0  0  0  0  0  0  0  0  0  0  0  0
    3.8468    0.7814   -0.0000 C   0  0  0  0  0  0  0  0  0  0  0  0
    3.8347    2.3081   -0.0000 C   0  0  0  0  0  0  0  0  0  0  0  0
    5.1210    0.0481   -0.0000 C   0  0  0  0  0  0  0  0  0  0  0  0
    5.1330    3.0534   -0.0000 C   0  0  0  0  0  0  0  0  0  0  0  0
    6.4193    0.8174   -0.0000 C   0  0  0  0  0  0  0  0  0  0  0  0
    6.4073    2.3201   -0.0000 C   0  0  0  0  0  0  0  0  0  0  0  0
    5.1210    4.5680   -0.0000 C   0  0  0  0  0  0  0  0  0  0  0  0
    7.6935    3.0894   -0.0000 C   0  0  0  0  0  0  0  0  0  0  0  0
    6.3952    5.3374   -0.0000 C   0  0  0  0  0  0  0  0  0  0  0  0
    7.6815    4.6281   -0.0000 C   0  0  0  0  0  0  0  0  0  0  0  0
    9.1240    2.6326   -0.0000 C   0  0  0  0  0  0  0  0  0  0  0  0
    9.1120    5.0970   -0.0000 C   0  0  0  0  0  0  0  0  0  0  0  0
    7.6695    6.1308   -0.0000 C   0  0  0  0  0  0  0  0  0  0  0  0
   10.0136    3.8708   -0.0000 C   0  0  0  0  0  0  0  0  0  0  0  0
    9.5688    6.5395   -0.0000 O   0  0  0  0  0  0  0  0  0  0  0  0
  1  2  1  0  0  0  0
  2  3  2  0  0  0  0
  2  4  1  0  0  0  0
  3  5  1  0  0  0  0
  3  6  1  0  0  0  0
  4  7  2  0  0  0  0
  5  8  2  0  0  0  0
  7  9  1  0  0  0  0
  8 10  1  0  0  0  0
  9 11  1  0  0  0  0
 10 12  1  0  0  0  0
 10 13  1  1  0  0  0
 12 14  1  0  0  0  0
 13 15  1  0  0  0  0
 14 16  1  0  0  0  0
 14 17  1  1  0  0  0
 16 18  1  0  0  0  0
 16 19  1  1  0  0  0
 17 20  1  0  0  0  0
 18 21  1  1  0  0  0
  7  8  1  0  0  0  0
 12 11  1  6  0  0  0
 15 16  1  0  0  0  0
 18 20  1  0  0  0  0
M  END
>  <MolRegNo>
388017

>  <m>
=

>  <Value>
100

>  <Unit>
nM

>  <Type>
Ki

>  <pValue>
7

>  <Ligand Efficiency>
0.46

>  <Binding Efficiency>
24.44

>  <Surface Efficiency>
17.3

>  <Assay Index>
985353

>  <Assay Category>


>  <Assay Organism>
Homo sapiens

>  <Target ID>
65

>  <Target Name>
Cytochrome P450 19A1

>  <Target Organism>
Homo sapiens

>  <Target Description>
Target is a single protein chain

>  <Sequence Accession>
P11511

>  <Reference>


>  <Pubmed ID>
26469743

>  <DOI>
10.1016/j.ejmech.2015.09.038

$$$$
2091070
Actelion Java MolfileCreator 1.0

 27 30  0  0  0  0  0  0  0  0999 V2000
    0.0000   -0.0000   -0.0000 Cl  0  0  0  0  0  0  0  0  0  0  0  0
    1.0516    0.6286   -0.0000 C   0  0  0  0  0  0  0  0  0  0  0  0
    2.3692   -0.1330   -0.0000 C   0  0  0  0  0  0  0  0  0  0  0  0
    1.0395    2.1758   -0.0000 C   0  0  0  0  0  0  0  0  0  0  0  0
    3.6867    0.6406   -0.0000 C   0  0  0  0  0  0  0  0  0  0  0  0
    2.3571    2.9494   -0.0000 C   0  0  0  0  0  0  0  0  0  0  0  0
    3.6746    2.1879   -0.0000 C   0  0  0  0  0  0  0  0  0  0  0  0
    4.9922    2.9735   -0.0000 C   0  0  0  0  0  0  0  0  0  0  0  0
    4.9801    4.5208   -0.0000 C   0  0  0  0  0  0  0  0  0  0  0  0
    6.3218    2.2241   -0.0000 C   0  0  0  0  0  0  0  0  0  0  0  0
    3.9043    5.1493   -0.0000 O   0  0  0  0  0  0  0  0  0  0  0  0
    6.3097    5.2944   -0.0000 O   0  0  0  0  0  0  0  0  0  0  0  0
    7.6394    2.9977   -0.0000 C   0  0  0  0  0  0  0  0  0  0  0  0
    6.3097    0.7011   -0.0000 C   0  0  0  0  0  0  0  0  0  0  0  0
    7.6273    4.5449   -0.0000 C   0  0  0  0  0  0  0  0  0  0  0  0
    8.9569    2.2483   -0.0000 C   0  0  0  0  0  0  0  0  0  0  0  0
    7.6273   -0.0484   -0.0000 C   0  0  0  0  0  0  0  0  0  0  0  0
    8.9448    5.3185   -0.0000 C   0  0  0  0  0  0  0  0  0  0  0  0
   10.2745    3.0219   -0.0000 C   0  0  0  0  0  0  0  0  0  0  0  0
    7.6273   -1.5714   -0.0000 C   0  0  0  0  0  0  0  0  0  0  0  0
    8.9448    0.7373   -0.0000 C   0  0  0  0  0  0  0  0  0  0  0  0
   10.2624    4.5691   -0.0000 C   0  0  0  0  0  0  0  0  0  0  0  0
    8.9448   -2.3208   -0.0000 C   0  0  0  0  0  0  0  0  0  0  0  0
   10.2624   -0.0121   -0.0000 C   0  0  0  0  0  0  0  0  0  0  0  0
   11.5799    5.3548   -0.0000 O   0  0  0  0  0  0  0  0  0  0  0  0
   10.2624   -1.5351   -0.0000 C   0  0  0  0  0  0  0  0  0  0  0  0
   11.5678    6.5998   -0.0000 C   0  0  0  0  0  0  0  0  0  0  0  0
  1  2  1  0  0  0  0
  2  3  2  0  0  0  0
  2  4  1  0  0  0  0
  3  5  1  0  0  0  0
  4  6  2  0  0  0  0
  5  7  2  0  0  0  0
  7  8  1  0  0  0  0
  8  9  1  0  0  0  0
  8 10  2  0  0  0  0
  9 11  2  0  0  0  0
  9 12  1  0  0  0  0
 10 13  1  0  0  0  0
 10 14  1  0  0  0  0
 12 15  1  0  0  0  0
 13 16  1  0  0  0  0
 14 17  1  0  0  0  0
 15 18  1  0  0  0  0
 16 19  2  0  0  0  0
 17 20  2  0  0  0  0
 17 21  1  0  0  0  0
 18 22  2  0  0  0  0
 20 23  1  0  0  0  0
 21 24  2  0  0  0  0
 22 25  1  0  0  0  0
 23 26  2  0  0  0  0
 25 27  1  0  0  0  0
  6  7  1  0  0  0  0
 13 15  2  0  0  0  0
 19 22  1  0  0  0  0
 24 26  1  0  0  0  0
M  END
>  <MolRegNo>
2091070

>  <m>
=

>  <Value>
84

>  <Unit>
nM

>  <Type>
Ki

>  <pValue>
7.08

>  <Ligand Efficiency>
0.36

>  <Binding Efficiency>
18.78

>  <Surface Efficiency>
17.94

>  <Assay Index>
1022774

>  <Assay Category>


>  <Assay Organism>
Homo sapiens

>  <Target ID>
65

>  <Target Name>
Cytochrome P450 19A1

>  <Target Organism>
Homo sapiens

>  <Target Description>
Target is a single protein chain

>  <Sequence Accession>
P11511

>  <Reference>
J Med Chem 59 (11), 5131-5148 (2016)

>  <Pubmed ID>
26689671

>  <DOI>
10.1021/acs.jmedchem.5b01281

$$$$
2416345
Actelion Java MolfileCreator 1.0

 20 22  0  0  0  0  0  0  0  0999 V2000
    0.0000   -0.0000   -0.0000 N   0  0  0  0  0  0  0  0  0  0  0  0
   -1.2344    0.8902   -0.0000 N   0  0  0  0  0  0  0  0  0  0  0  0
   -0.4748   -1.4124   -0.0000 C   0  0  0  0  0  0  0  0  0  0  0  0
   -2.4450    0.0119   -0.0000 C   0  0  0  0  0  0  0  0  0  0  0  0
   -1.2462    2.3975   -0.0000 C   0  0  0  0  0  0  0  0  0  0  0  0
   -1.9821   -1.4005   -0.0000 N   0  0  0  0  0  0  0  0  0  0  0  0
   -2.5518    3.1571   -0.0000 C   0  0  0  0  0  0  0  0  0  0  0  0
   -3.8574    2.4212   -0.0000 C   0  0  0  0  0  0  0  0  0  0  0  0
   -2.5637    4.6644   -0.0000 C   0  0  0  0  0  0  0  0  0  0  0  0
   -5.1629    3.1808   -0.0000 C   0  0  0  0  0  0  0  0  0  0  0  0
   -3.8574    0.9495   -0.0000 C   0  0  0  0  0  0  0  0  0  0  0  0
   -1.2818    5.4240   -0.0000 C   0  0  0  0  0  0  0  0  0  0  0  0
   -6.4685    2.4450   -0.0000 C   0  0  0  0  0  0  0  0  0  0  0  0
   -5.1629    0.2018   -0.0000 C   0  0  0  0  0  0  0  0  0  0  0  0
    0.0000    4.6882   -0.0000 C   0  0  0  0  0  0  0  0  0  0  0  0
   -1.2937    6.9432   -0.0000 C   0  0  0  0  0  0  0  0  0  0  0  0
   -6.4804    0.9614   -0.0000 C   0  0  0  0  0  0  0  0  0  0  0  0
    1.2937    5.4478   -0.0000 C   0  0  0  0  0  0  0  0  0  0  0  0
   -0.0119    7.7029   -0.0000 C   0  0  0  0  0  0  0  0  0  0  0  0
    1.2818    6.9670   -0.0000 C   0  0  0  0  0  0  0  0  0  0  0  0
  1  2  1  0  0  0  0
  1  3  2  0  0  0  0
  2  4  1  0  0  0  0
  2  5  1  0  0  0  0
  3  6  1  0  0  0  0
  5  7  1  0  0  0  0
  7  8  1  0  0  0  0
  7  9  2  0  0  0  0
  8 10  2  0  0  0  0
  8 11  1  0  0  0  0
  9 12  1  0  0  0  0
 10 13  1  0  0  0  0
 11 14  2  0  0  0  0
 12 15  2  0  0  0  0
 12 16  1  0  0  0  0
 13 17  2  0  0  0  0
 15 18  1  0  0  0  0
 16 19  2  0  0  0  0
 18 20  2  0  0  0  0
  4  6  2  0  0  0  0
 14 17  1  0  0  0  0
 19 20  1  0  0  0  0
M  END
>  <MolRegNo>
2416345

>  <m>
=

>  <Value>
32

>  <Unit>
nM

>  <Type>
Ki

>  <pValue>
7.5

>  <Ligand Efficiency>
0.51

>  <Binding Efficiency>
28.68

>  <Surface Efficiency>
24.41

>  <Assay Index>
1255696

>  <Assay Category>


>  <Assay Organism>
Homo sapiens

>  <Target ID>
65

>  <Target Name>
Cytochrome P450 19A1

>  <Target Organism>
Homo sapiens

>  <Target Description>
Target is a single protein chain

>  <Sequence Accession>
P11511

>  <Reference>
Bioorg Med Chem Lett 29 (11), 1395-1398 (2019)

>  <Pubmed ID>
30952594

>  <DOI>
10.1016/j.bmcl.2019.03.033

$$$$
2396908
Actelion Java MolfileCreator 1.0

 20 22  0  0  0  0  0  0  0  0999 V2000
    0.0000   -0.0000   -0.0000 N   0  0  0  0  0  0  0  0  0  0  0  0
   -1.2305    0.8874   -0.0000 N   0  0  0  0  0  0  0  0  0  0  0  0
   -0.4733   -1.4080   -0.0000 C   0  0  0  0  0  0  0  0  0  0  0  0
   -2.4374    0.0118   -0.0000 C   0  0  0  0  0  0  0  0  0  0  0  0
   -1.2424    2.3900   -0.0000 C   0  0  0  0  0  0  0  0  0  0  0  0
   -1.9759   -1.3962   -0.0000 N   0  0  0  0  0  0  0  0  0  0  0  0
   -2.5439    3.1473   -0.0000 C   0  0  0  0  0  0  0  0  0  0  0  0
   -3.8454    2.4137   -0.0000 C   0  0  0  0  0  0  0  0  0  0  0  0
   -2.5557    4.6499   -0.0000 C   0  0  0  0  0  0  0  0  0  0  0  0
   -5.1469    3.1710   -0.0000 C   0  0  0  0  0  0  0  0  0  0  0  0
   -3.8454    0.9466   -0.0000 C   0  0  0  0  0  0  0  0  0  0  0  0
   -3.8572    5.4072   -0.0000 C   0  0  0  0  0  0  0  0  0  0  0  0
   -6.4484    2.4374   -0.0000 C   0  0  0  0  0  0  0  0  0  0  0  0
   -5.1469    0.2011   -0.0000 C   0  0  0  0  0  0  0  0  0  0  0  0
   -5.1706    4.6736   -0.0000 C   0  0  0  0  0  0  0  0  0  0  0  0
   -3.8690    6.9217   -0.0000 C   0  0  0  0  0  0  0  0  0  0  0  0
   -6.4602    0.9584   -0.0000 C   0  0  0  0  0  0  0  0  0  0  0  0
   -6.4721    5.4309   -0.0000 C   0  0  0  0  0  0  0  0  0  0  0  0
   -5.1706    7.6789   -0.0000 C   0  0  0  0  0  0  0  0  0  0  0  0
   -6.4839    6.9453   -0.0000 C   0  0  0  0  0  0  0  0  0  0  0  0
  1  2  1  0  0  0  0
  1  3  2  0  0  0  0
  2  4  1  0  0  0  0
  2  5  1  0  0  0  0
  3  6  1  0  0  0  0
  5  7  1  0  0  0  0
  7  8  1  0  0  0  0
  7  9  2  0  0  0  0
  8 10  2  0  0  0  0
  8 11  1  0  0  0  0
  9 12  1  0  0  0  0
 10 13  1  0  0  0  0
 11 14  2  0  0  0  0
 12 15  2  0  0  0  0
 12 16  1  0  0  0  0
 13 17  2  0  0  0  0
 15 18  1  0  0  0  0
 16 19  2  0  0  0  0
 18 20  2  0  0  0  0
  4  6  2  0  0  0  0
 14 17  1  0  0  0  0
 19 20  1  0  0  0  0
M  END
>  <MolRegNo>
2396908

>  <m>
=

>  <Value>
79

>  <Unit>
nM

>  <Type>
Ki

>  <pValue>
7.1

>  <Ligand Efficiency>
0.48

>  <Binding Efficiency>
27.18

>  <Surface Efficiency>
23.13

>  <Assay Index>
1255696

>  <Assay Category>


>  <Assay Organism>
Homo sapiens

>  <Target ID>
65

>  <Target Name>
Cytochrome P450 19A1

>  <Target Organism>
Homo sapiens

>  <Target Description>
Target is a single protein chain

>  <Sequence Accession>
P11511

>  <Reference>
Bioorg Med Chem Lett 29 (11), 1395-1398 (2019)

>  <Pubmed ID>
30952594

>  <DOI>
10.1016/j.bmcl.2019.03.033

$$$$
2453022
Actelion Java MolfileCreator 1.0

 20 22  0  0  0  0  0  0  0  0999 V2000
    0.0000   -0.0000   -0.0000 N   0  0  0  0  0  0  0  0  0  0  0  0
   -0.4749   -1.4127   -0.0000 N   0  0  0  0  0  0  0  0  0  0  0  0
   -1.2346    0.8904   -0.0000 N   0  0  0  0  0  0  0  0  0  0  0  0
   -1.9825   -1.4008   -0.0000 C   0  0  0  0  0  0  0  0  0  0  0  0
   -2.4455    0.0237   -0.0000 C   0  0  0  0  0  0  0  0  0  0  0  0
   -1.2465    2.3980   -0.0000 C   0  0  0  0  0  0  0  0  0  0  0  0
   -2.5524    3.1578   -0.0000 C   0  0  0  0  0  0  0  0  0  0  0  0
   -3.8582    2.4218   -0.0000 C   0  0  0  0  0  0  0  0  0  0  0  0
   -2.5642    4.6655   -0.0000 C   0  0  0  0  0  0  0  0  0  0  0  0
   -5.1641    3.1816   -0.0000 C   0  0  0  0  0  0  0  0  0  0  0  0
   -3.8582    0.9497   -0.0000 C   0  0  0  0  0  0  0  0  0  0  0  0
   -1.2821    5.4253   -0.0000 C   0  0  0  0  0  0  0  0  0  0  0  0
   -6.4699    2.4455   -0.0000 C   0  0  0  0  0  0  0  0  0  0  0  0
   -5.1641    0.2137   -0.0000 C   0  0  0  0  0  0  0  0  0  0  0  0
    0.0000    4.6892   -0.0000 C   0  0  0  0  0  0  0  0  0  0  0  0
   -1.2940    6.9448   -0.0000 C   0  0  0  0  0  0  0  0  0  0  0  0
   -6.4818    0.9616   -0.0000 C   0  0  0  0  0  0  0  0  0  0  0  0
    1.2940    5.4490   -0.0000 C   0  0  0  0  0  0  0  0  0  0  0  0
   -0.0119    7.7046   -0.0000 C   0  0  0  0  0  0  0  0  0  0  0  0
    1.2821    6.9685   -0.0000 C   0  0  0  0  0  0  0  0  0  0  0  0
  1  2  2  0  0  0  0
  1  3  1  0  0  0  0
  2  4  1  0  0  0  0
  3  5  1  0  0  0  0
  3  6  1  0  0  0  0
  6  7  1  0  0  0  0
  7  8  1  0  0  0  0
  7  9  1  0  0  0  0
  8 10  2  0  0  0  0
  8 11  1  0  0  0  0
  9 12  1  0  0  0  0
 10 13  1  0  0  0  0
 11 14  2  0  0  0  0
 12 15  2  0  0  0  0
 12 16  1  0  0  0  0
 13 17  2  0  0  0  0
 15 18  1  0  0  0  0
 16 19  2  0  0  0  0
 18 20  2  0  0  0  0
  4  5  2  0  0  0  0
 14 17  1  0  0  0  0
 19 20  1  0  0  0  0
M  END
>  <MolRegNo>
2453022

>  <m>
=

>  <Value>
290

>  <Unit>
nM

>  <Type>
Ki

>  <pValue>
6.54

>  <Ligand Efficiency>
0.45

>  <Binding Efficiency>
24.83

>  <Surface Efficiency>
21.29

>  <Assay Index>
1255696

>  <Assay Category>


>  <Assay Organism>
Homo sapiens

>  <Target ID>
65

>  <Target Name>
Cytochrome P450 19A1

>  <Target Organism>
Homo sapiens

>  <Target Description>
Target is a single protein chain

>  <Sequence Accession>
P11511

>  <Reference>
Bioorg Med Chem Lett 29 (11), 1395-1398 (2019)

>  <Pubmed ID>
30952594

>  <DOI>
10.1016/j.bmcl.2019.03.033

$$$$
2357932
Actelion Java MolfileCreator 1.0

 22 24  0  0  0  0  0  0  0  0999 V2000
    0.0000   -0.0000   -0.0000 Br  0  0  0  0  0  0  0  0  0  0  0  0
    1.2833    0.7723   -0.0000 C   0  0  0  0  0  0  0  0  0  0  0  0
    1.2714    2.2933   -0.0000 C   0  0  0  0  0  0  0  0  0  0  0  0
    2.5903    0.0356   -0.0000 C   0  0  0  0  0  0  0  0  0  0  0  0
    2.5547    3.0537   -0.0000 C   0  0  0  0  0  0  0  0  0  0  0  0
    3.8736    0.8080   -0.0000 C   0  0  0  0  0  0  0  0  0  0  0  0
    3.8380    2.3052   -0.0000 C   0  0  0  0  0  0  0  0  0  0  0  0
    5.1331    3.0656   -0.0000 C   0  0  0  0  0  0  0  0  0  0  0  0
    5.1213    4.5866   -0.0000 C   0  0  0  0  0  0  0  0  0  0  0  0
    6.4283    2.3289   -0.0000 C   0  0  0  0  0  0  0  0  0  0  0  0
    6.4164    5.3470   -0.0000 C   0  0  0  0  0  0  0  0  0  0  0  0
    6.4164    0.8318   -0.0000 N   0  0  0  0  0  0  0  0  0  0  0  0
    6.4045    6.8680   -0.0000 C   0  0  0  0  0  0  0  0  0  0  0  0
    7.7116    4.6103   -0.0000 C   0  0  0  0  0  0  0  0  0  0  0  0
    7.6284   -0.0356   -0.0000 N   0  0  0  0  0  0  0  0  0  0  0  0
    5.1926   -0.0475   -0.0000 C   0  0  0  0  0  0  0  0  0  0  0  0
    7.6878    7.6284   -0.0000 C   0  0  0  0  0  0  0  0  0  0  0  0
    9.0068    5.3708   -0.0000 C   0  0  0  0  0  0  0  0  0  0  0  0
    7.1531   -1.4496   -0.0000 N   0  0  0  0  0  0  0  0  0  0  0  0
    5.6441   -1.4615   -0.0000 C   0  0  0  0  0  0  0  0  0  0  0  0
    8.9830    6.8917   -0.0000 C   0  0  0  0  0  0  0  0  0  0  0  0
   10.2663    7.6641   -0.0000 Br  0  0  0  0  0  0  0  0  0  0  0  0
  1  2  1  0  0  0  0
  2  3  2  0  0  0  0
  2  4  1  0  0  0  0
  3  5  1  0  0  0  0
  4  6  2  0  0  0  0
  5  7  2  0  0  0  0
  7  8  1  0  0  0  0
  8  9  2  0  0  0  0
  8 10  1  0  0  0  0
  9 11  1  0  0  0  0
 10 12  1  0  0  0  0
 11 13  2  0  0  0  0
 11 14  1  0  0  0  0
 12 15  1  0  0  0  0
 12 16  1  0  0  0  0
 13 17  1  0  0  0  0
 14 18  2  0  0  0  0
 15 19  2  0  0  0  0
 16 20  2  0  0  0  0
 17 21  2  0  0  0  0
 21 22  1  0  0  0  0
  6  7  1  0  0  0  0
 18 21  1  0  0  0  0
 19 20  1  0  0  0  0
M  END
>  <MolRegNo>
2357932

>  <m>
=

>  <Value>
24

>  <Unit>
nM

>  <Type>
Ki

>  <pValue>
7.62

>  <Ligand Efficiency>
0.47

>  <Binding Efficiency>
18.18

>  <Surface Efficiency>
24.81

>  <Assay Index>
1255696

>  <Assay Category>


>  <Assay Organism>
Homo sapiens

>  <Target ID>
65

>  <Target Name>
Cytochrome P450 19A1

>  <Target Organism>
Homo sapiens

>  <Target Description>
Target is a single protein chain

>  <Sequence Accession>
P11511

>  <Reference>
Bioorg Med Chem Lett 29 (11), 1395-1398 (2019)

>  <Pubmed ID>
30952594

>  <DOI>
10.1016/j.bmcl.2019.03.033

$$$$
2375942
Actelion Java MolfileCreator 1.0

 21 23  0  0  0  0  0  0  0  0999 V2000
    0.0000   -0.0000   -0.0000 Br  0  0  0  0  0  0  0  0  0  0  0  0
    1.2880    0.7632   -0.0000 C   0  0  0  0  0  0  0  0  0  0  0  0
    1.2761    2.2778   -0.0000 C   0  0  0  0  0  0  0  0  0  0  0  0
    2.5879    0.0239   -0.0000 C   0  0  0  0  0  0  0  0  0  0  0  0
    2.5640    3.0411   -0.0000 C   0  0  0  0  0  0  0  0  0  0  0  0
    3.8759    0.7990   -0.0000 C   0  0  0  0  0  0  0  0  0  0  0  0
    3.8520    2.3017   -0.0000 C   0  0  0  0  0  0  0  0  0  0  0  0
    5.1400    3.0649   -0.0000 C   0  0  0  0  0  0  0  0  0  0  0  0
    5.1281    4.5795   -0.0000 C   0  0  0  0  0  0  0  0  0  0  0  0
    6.4280    2.3255   -0.0000 C   0  0  0  0  0  0  0  0  0  0  0  0
    6.4161    5.3427   -0.0000 C   0  0  0  0  0  0  0  0  0  0  0  0
    6.4161    0.8348   -0.0000 N   0  0  0  0  0  0  0  0  0  0  0  0
    7.7040    4.6033   -0.0000 C   0  0  0  0  0  0  0  0  0  0  0  0
    6.4041    6.8692   -0.0000 C   0  0  0  0  0  0  0  0  0  0  0  0
    7.6325   -0.0358   -0.0000 N   0  0  0  0  0  0  0  0  0  0  0  0
    5.1996   -0.0358   -0.0000 C   0  0  0  0  0  0  0  0  0  0  0  0
    9.0039    5.3666   -0.0000 C   0  0  0  0  0  0  0  0  0  0  0  0
    7.6921    7.6325   -0.0000 C   0  0  0  0  0  0  0  0  0  0  0  0
    7.1555   -1.4549   -0.0000 N   0  0  0  0  0  0  0  0  0  0  0  0
    5.6528   -1.4549   -0.0000 C   0  0  0  0  0  0  0  0  0  0  0  0
    8.9920    6.8931   -0.0000 C   0  0  0  0  0  0  0  0  0  0  0  0
  1  2  1  0  0  0  0
  2  3  2  0  0  0  0
  2  4  1  0  0  0  0
  3  5  1  0  0  0  0
  4  6  2  0  0  0  0
  5  7  2  0  0  0  0
  7  8  1  0  0  0  0
  8  9  2  0  0  0  0
  8 10  1  0  0  0  0
  9 11  1  0  0  0  0
 10 12  1  0  0  0  0
 11 13  2  0  0  0  0
 11 14  1  0  0  0  0
 12 15  1  0  0  0  0
 12 16  1  0  0  0  0
 13 17  1  0  0  0  0
 14 18  2  0  0  0  0
 15 19  2  0  0  0  0
 16 20  2  0  0  0  0
 17 21  2  0  0  0  0
  6  7  1  0  0  0  0
 18 21  1  0  0  0  0
 19 20  1  0  0  0  0
M  END
>  <MolRegNo>
2375942

>  <m>
=

>  <Value>
74

>  <Unit>
nM

>  <Type>
Ki

>  <pValue>
7.13

>  <Ligand Efficiency>
0.46

>  <Binding Efficiency>
20.96

>  <Surface Efficiency>
23.22

>  <Assay Index>
1255696

>  <Assay Category>


>  <Assay Organism>
Homo sapiens

>  <Target ID>
65

>  <Target Name>
Cytochrome P450 19A1

>  <Target Organism>
Homo sapiens

>  <Target Description>
Target is a single protein chain

>  <Sequence Accession>
P11511

>  <Reference>
Bioorg Med Chem Lett 29 (11), 1395-1398 (2019)

>  <Pubmed ID>
30952594

>  <DOI>
10.1016/j.bmcl.2019.03.033

$$$$
2348588
Actelion Java MolfileCreator 1.0

 22 24  0  0  0  0  0  0  0  0999 V2000
    0.0000   -0.0000   -0.0000 Cl  0  0  0  0  0  0  0  0  0  0  0  0
    1.2940    0.7717   -0.0000 C   0  0  0  0  0  0  0  0  0  0  0  0
    1.2822    2.2913   -0.0000 C   0  0  0  0  0  0  0  0  0  0  0  0
    2.5999    0.0356   -0.0000 C   0  0  0  0  0  0  0  0  0  0  0  0
    2.5762    3.0511   -0.0000 C   0  0  0  0  0  0  0  0  0  0  0  0
    3.8821    0.8073   -0.0000 C   0  0  0  0  0  0  0  0  0  0  0  0
    3.8584    2.3032   -0.0000 C   0  0  0  0  0  0  0  0  0  0  0  0
    5.1524    3.0630   -0.0000 C   0  0  0  0  0  0  0  0  0  0  0  0
    5.1405    4.5826   -0.0000 C   0  0  0  0  0  0  0  0  0  0  0  0
    6.4464    2.3269   -0.0000 C   0  0  0  0  0  0  0  0  0  0  0  0
    6.4346    5.3424   -0.0000 C   0  0  0  0  0  0  0  0  0  0  0  0
    6.4346    0.8310   -0.0000 N   0  0  0  0  0  0  0  0  0  0  0  0
    6.4227    6.8620   -0.0000 C   0  0  0  0  0  0  0  0  0  0  0  0
    7.7286    4.6063   -0.0000 C   0  0  0  0  0  0  0  0  0  0  0  0
    7.6455   -0.0356   -0.0000 N   0  0  0  0  0  0  0  0  0  0  0  0
    5.2118   -0.0475   -0.0000 C   0  0  0  0  0  0  0  0  0  0  0  0
    7.7049    7.6218   -0.0000 C   0  0  0  0  0  0  0  0  0  0  0  0
    9.0227    5.3661   -0.0000 C   0  0  0  0  0  0  0  0  0  0  0  0
    7.1706   -1.4602   -0.0000 N   0  0  0  0  0  0  0  0  0  0  0  0
    5.6629   -1.4602   -0.0000 C   0  0  0  0  0  0  0  0  0  0  0  0
    8.9989    6.8857   -0.0000 C   0  0  0  0  0  0  0  0  0  0  0  0
   10.2811    7.6574   -0.0000 Cl  0  0  0  0  0  0  0  0  0  0  0  0
  1  2  1  0  0  0  0
  2  3  2  0  0  0  0
  2  4  1  0  0  0  0
  3  5  1  0  0  0  0
  4  6  2  0  0  0  0
  5  7  2  0  0  0  0
  7  8  1  0  0  0  0
  8  9  2  0  0  0  0
  8 10  1  0  0  0  0
  9 11  1  0  0  0  0
 10 12  1  0  0  0  0
 11 13  2  0  0  0  0
 11 14  1  0  0  0  0
 12 15  1  0  0  0  0
 12 16  1  0  0  0  0
 13 17  1  0  0  0  0
 14 18  2  0  0  0  0
 15 19  2  0  0  0  0
 16 20  2  0  0  0  0
 17 21  2  0  0  0  0
 21 22  1  0  0  0  0
  6  7  1  0  0  0  0
 18 21  1  0  0  0  0
 19 20  1  0  0  0  0
M  END
>  <MolRegNo>
2348588

>  <m>
=

>  <Value>
8

>  <Unit>
nM

>  <Type>
Ki

>  <pValue>
8.1

>  <Ligand Efficiency>
0.5

>  <Binding Efficiency>
24.52

>  <Surface Efficiency>
26.37

>  <Assay Index>
1255696

>  <Assay Category>


>  <Assay Organism>
Homo sapiens

>  <Target ID>
65

>  <Target Name>
Cytochrome P450 19A1

>  <Target Organism>
Homo sapiens

>  <Target Description>
Target is a single protein chain

>  <Sequence Accession>
P11511

>  <Reference>
Bioorg Med Chem Lett 29 (11), 1395-1398 (2019)

>  <Pubmed ID>
30952594

>  <DOI>
10.1016/j.bmcl.2019.03.033

$$$$
2432084
Actelion Java MolfileCreator 1.0

 21 23  0  0  0  0  0  0  0  0999 V2000
    0.0000   -0.0000   -0.0000 Cl  0  0  0  0  0  0  0  0  0  0  0  0
    1.2877    0.7631   -0.0000 C   0  0  0  0  0  0  0  0  0  0  0  0
    1.2758    2.2774   -0.0000 C   0  0  0  0  0  0  0  0  0  0  0  0
    2.5874    0.0238   -0.0000 C   0  0  0  0  0  0  0  0  0  0  0  0
    2.5635    3.0405   -0.0000 C   0  0  0  0  0  0  0  0  0  0  0  0
    3.8751    0.7869   -0.0000 C   0  0  0  0  0  0  0  0  0  0  0  0
    3.8513    2.2893   -0.0000 C   0  0  0  0  0  0  0  0  0  0  0  0
    5.1390    3.0524   -0.0000 C   0  0  0  0  0  0  0  0  0  0  0  0
    5.1271    4.5667   -0.0000 C   0  0  0  0  0  0  0  0  0  0  0  0
    6.4267    2.3131   -0.0000 C   0  0  0  0  0  0  0  0  0  0  0  0
    6.4148    5.3297   -0.0000 C   0  0  0  0  0  0  0  0  0  0  0  0
    6.4148    0.8227   -0.0000 N   0  0  0  0  0  0  0  0  0  0  0  0
    7.7025    4.5905   -0.0000 C   0  0  0  0  0  0  0  0  0  0  0  0
    6.4029    6.8559   -0.0000 C   0  0  0  0  0  0  0  0  0  0  0  0
    7.6310   -0.0477   -0.0000 N   0  0  0  0  0  0  0  0  0  0  0  0
    5.1986   -0.0596   -0.0000 C   0  0  0  0  0  0  0  0  0  0  0  0
    9.0021    5.3536   -0.0000 C   0  0  0  0  0  0  0  0  0  0  0  0
    7.6906    7.6190   -0.0000 C   0  0  0  0  0  0  0  0  0  0  0  0
    7.1540   -1.4666   -0.0000 N   0  0  0  0  0  0  0  0  0  0  0  0
    5.6517   -1.4785   -0.0000 C   0  0  0  0  0  0  0  0  0  0  0  0
    8.9902    6.8798   -0.0000 C   0  0  0  0  0  0  0  0  0  0  0  0
  1  2  1  0  0  0  0
  2  3  2  0  0  0  0
  2  4  1  0  0  0  0
  3  5  1  0  0  0  0
  4  6  2  0  0  0  0
  5  7  2  0  0  0  0
  7  8  1  0  0  0  0
  8  9  2  0  0  0  0
  8 10  1  0  0  0  0
  9 11  1  0  0  0  0
 10 12  1  0  0  0  0
 11 13  2  0  0  0  0
 11 14  1  0  0  0  0
 12 15  1  0  0  0  0
 12 16  1  0  0  0  0
 13 17  1  0  0  0  0
 14 18  2  0  0  0  0
 15 19  2  0  0  0  0
 16 20  2  0  0  0  0
 17 21  2  0  0  0  0
  6  7  1  0  0  0  0
 18 21  1  0  0  0  0
 19 20  1  0  0  0  0
M  END
>  <MolRegNo>
2432084

>  <m>
=

>  <Value>
57

>  <Unit>
nM

>  <Type>
Ki

>  <pValue>
7.24

>  <Ligand Efficiency>
0.47

>  <Binding Efficiency>
24.49

>  <Surface Efficiency>
23.59

>  <Assay Index>
1255696

>  <Assay Category>


>  <Assay Organism>
Homo sapiens

>  <Target ID>
65

>  <Target Name>
Cytochrome P450 19A1

>  <Target Organism>
Homo sapiens

>  <Target Description>
Target is a single protein chain

>  <Sequence Accession>
P11511

>  <Reference>
Bioorg Med Chem Lett 29 (11), 1395-1398 (2019)

>  <Pubmed ID>
30952594

>  <DOI>
10.1016/j.bmcl.2019.03.033

$$$$
2344357
Actelion Java MolfileCreator 1.0

 20 22  0  0  0  0  0  0  0  0999 V2000
    0.0000   -0.0000   -0.0000 N   0  0  0  0  0  0  0  0  0  0  0  0
   -0.4748   -1.4124   -0.0000 N   0  0  0  0  0  0  0  0  0  0  0  0
   -1.2344    0.8902   -0.0000 N   0  0  0  0  0  0  0  0  0  0  0  0
   -1.9821   -1.4005   -0.0000 C   0  0  0  0  0  0  0  0  0  0  0  0
   -2.4450    0.0119   -0.0000 C   0  0  0  0  0  0  0  0  0  0  0  0
   -1.2462    2.3975   -0.0000 C   0  0  0  0  0  0  0  0  0  0  0  0
   -2.5518    3.1571   -0.0000 C   0  0  0  0  0  0  0  0  0  0  0  0
   -3.8574    2.4212   -0.0000 C   0  0  0  0  0  0  0  0  0  0  0  0
   -2.5637    4.6644   -0.0000 C   0  0  0  0  0  0  0  0  0  0  0  0
   -5.1629    3.1808   -0.0000 C   0  0  0  0  0  0  0  0  0  0  0  0
   -3.8574    0.9495   -0.0000 C   0  0  0  0  0  0  0  0  0  0  0  0
   -1.2818    5.4240   -0.0000 C   0  0  0  0  0  0  0  0  0  0  0  0
   -6.4685    2.4450   -0.0000 C   0  0  0  0  0  0  0  0  0  0  0  0
   -5.1629    0.2018   -0.0000 C   0  0  0  0  0  0  0  0  0  0  0  0
    0.0000    4.6882   -0.0000 C   0  0  0  0  0  0  0  0  0  0  0  0
   -1.2937    6.9432   -0.0000 C   0  0  0  0  0  0  0  0  0  0  0  0
   -6.4804    0.9614   -0.0000 C   0  0  0  0  0  0  0  0  0  0  0  0
    1.2937    5.4478   -0.0000 C   0  0  0  0  0  0  0  0  0  0  0  0
   -0.0119    7.7029   -0.0000 C   0  0  0  0  0  0  0  0  0  0  0  0
    1.2818    6.9670   -0.0000 C   0  0  0  0  0  0  0  0  0  0  0  0
  1  2  2  0  0  0  0
  1  3  1  0  0  0  0
  2  4  1  0  0  0  0
  3  5  1  0  0  0  0
  3  6  1  0  0  0  0
  6  7  1  0  0  0  0
  7  8  1  0  0  0  0
  7  9  2  0  0  0  0
  8 10  2  0  0  0  0
  8 11  1  0  0  0  0
  9 12  1  0  0  0  0
 10 13  1  0  0  0  0
 11 14  2  0  0  0  0
 12 15  2  0  0  0  0
 12 16  1  0  0  0  0
 13 17  2  0  0  0  0
 15 18  1  0  0  0  0
 16 19  2  0  0  0  0
 18 20  2  0  0  0  0
  4  5  2  0  0  0  0
 14 17  1  0  0  0  0
 19 20  1  0  0  0  0
M  END
>  <MolRegNo>
2344357

>  <m>
=

>  <Value>
100

>  <Unit>
nM

>  <Type>
Ki

>  <pValue>
7

>  <Ligand Efficiency>
0.48

>  <Binding Efficiency>
26.79

>  <Surface Efficiency>
22.79

>  <Assay Index>
1255696

>  <Assay Category>


>  <Assay Organism>
Homo sapiens

>  <Target ID>
65

>  <Target Name>
Cytochrome P450 19A1

>  <Target Organism>
Homo sapiens

>  <Target Description>
Target is a single protein chain

>  <Sequence Accession>
P11511

>  <Reference>
Bioorg Med Chem Lett 29 (11), 1395-1398 (2019)

>  <Pubmed ID>
30952594

>  <DOI>
10.1016/j.bmcl.2019.03.033

$$$$
2361161
Actelion Java MolfileCreator 1.0

 22 24  0  0  0  0  0  0  0  0999 V2000
    0.0000   -0.0000   -0.0000 Br  0  0  0  0  0  0  0  0  0  0  0  0
    1.2834    0.7605   -0.0000 C   0  0  0  0  0  0  0  0  0  0  0  0
    1.2715    2.2698   -0.0000 C   0  0  0  0  0  0  0  0  0  0  0  0
    2.5787    0.0238   -0.0000 C   0  0  0  0  0  0  0  0  0  0  0  0
    2.5550    3.0303   -0.0000 C   0  0  0  0  0  0  0  0  0  0  0  0
    3.8621    0.7843   -0.0000 C   0  0  0  0  0  0  0  0  0  0  0  0
    3.8384    2.2816   -0.0000 C   0  0  0  0  0  0  0  0  0  0  0  0
    5.1218    3.0422   -0.0000 C   0  0  0  0  0  0  0  0  0  0  0  0
    5.1099    4.5514   -0.0000 C   0  0  0  0  0  0  0  0  0  0  0  0
    6.4052    2.3054   -0.0000 C   0  0  0  0  0  0  0  0  0  0  0  0
    3.8027    5.3119   -0.0000 C   0  0  0  0  0  0  0  0  0  0  0  0
    6.3933    0.8200   -0.0000 N   0  0  0  0  0  0  0  0  0  0  0  0
    2.4837    4.5752   -0.0000 C   0  0  0  0  0  0  0  0  0  0  0  0
    3.7908    6.8330   -0.0000 C   0  0  0  0  0  0  0  0  0  0  0  0
    7.6055   -0.0475   -0.0000 N   0  0  0  0  0  0  0  0  0  0  0  0
    5.1812   -0.0594   -0.0000 C   0  0  0  0  0  0  0  0  0  0  0  0
    1.1765    5.3357   -0.0000 C   0  0  0  0  0  0  0  0  0  0  0  0
    2.4837    7.5936   -0.0000 C   0  0  0  0  0  0  0  0  0  0  0  0
    7.1301   -1.4617   -0.0000 N   0  0  0  0  0  0  0  0  0  0  0  0
    5.6328   -1.4736   -0.0000 C   0  0  0  0  0  0  0  0  0  0  0  0
    1.1646    6.8568   -0.0000 C   0  0  0  0  0  0  0  0  0  0  0  0
   -0.1426    7.6173   -0.0000 Br  0  0  0  0  0  0  0  0  0  0  0  0
  1  2  1  0  0  0  0
  2  3  2  0  0  0  0
  2  4  1  0  0  0  0
  3  5  1  0  0  0  0
  4  6  2  0  0  0  0
  5  7  2  0  0  0  0
  7  8  1  0  0  0  0
  8  9  2  0  0  0  0
  8 10  1  0  0  0  0
  9 11  1  0  0  0  0
 10 12  1  0  0  0  0
 11 13  2  0  0  0  0
 11 14  1  0  0  0  0
 12 15  1  0  0  0  0
 12 16  1  0  0  0  0
 13 17  1  0  0  0  0
 14 18  2  0  0  0  0
 15 19  2  0  0  0  0
 16 20  2  0  0  0  0
 17 21  2  0  0  0  0
 21 22  1  0  0  0  0
  6  7  1  0  0  0  0
 18 21  1  0  0  0  0
 19 20  1  0  0  0  0
M  END
>  <MolRegNo>
2361161

>  <m>
=

>  <Value>
450

>  <Unit>
nM

>  <Type>
Ki

>  <pValue>
6.35

>  <Ligand Efficiency>
0.39

>  <Binding Efficiency>
15.14

>  <Surface Efficiency>
20.67

>  <Assay Index>
1255696

>  <Assay Category>


>  <Assay Organism>
Homo sapiens

>  <Target ID>
65

>  <Target Name>
Cytochrome P450 19A1

>  <Target Organism>
Homo sapiens

>  <Target Description>
Target is a single protein chain

>  <Sequence Accession>
P11511

>  <Reference>
Bioorg Med Chem Lett 29 (11), 1395-1398 (2019)

>  <Pubmed ID>
30952594

>  <DOI>
10.1016/j.bmcl.2019.03.033

$$$$
2432885
Actelion Java MolfileCreator 1.0

 21 23  0  0  0  0  0  0  0  0999 V2000
    0.0000   -0.0000   -0.0000 Br  0  0  0  0  0  0  0  0  0  0  0  0
    1.2839    0.7608   -0.0000 C   0  0  0  0  0  0  0  0  0  0  0  0
    1.2720    2.2706   -0.0000 C   0  0  0  0  0  0  0  0  0  0  0  0
    2.5796    0.0238   -0.0000 C   0  0  0  0  0  0  0  0  0  0  0  0
    2.5559    3.0314   -0.0000 C   0  0  0  0  0  0  0  0  0  0  0  0
    3.8635    0.7965   -0.0000 C   0  0  0  0  0  0  0  0  0  0  0  0
    3.8397    2.2943   -0.0000 C   0  0  0  0  0  0  0  0  0  0  0  0
    5.1236    3.0551   -0.0000 C   0  0  0  0  0  0  0  0  0  0  0  0
    5.1117    4.5649   -0.0000 C   0  0  0  0  0  0  0  0  0  0  0  0
    6.4075    2.3181   -0.0000 C   0  0  0  0  0  0  0  0  0  0  0  0
    3.8041    5.3257   -0.0000 C   0  0  0  0  0  0  0  0  0  0  0  0
    6.3956    0.8321   -0.0000 N   0  0  0  0  0  0  0  0  0  0  0  0
    2.4845    4.5887   -0.0000 C   0  0  0  0  0  0  0  0  0  0  0  0
    3.7922    6.8473   -0.0000 C   0  0  0  0  0  0  0  0  0  0  0  0
    7.6081   -0.0357   -0.0000 N   0  0  0  0  0  0  0  0  0  0  0  0
    5.1830   -0.0476   -0.0000 C   0  0  0  0  0  0  0  0  0  0  0  0
    1.1769    5.3495   -0.0000 C   0  0  0  0  0  0  0  0  0  0  0  0
    2.4845    7.6081   -0.0000 C   0  0  0  0  0  0  0  0  0  0  0  0
    7.1326   -1.4503   -0.0000 N   0  0  0  0  0  0  0  0  0  0  0  0
    5.6348   -1.4622   -0.0000 C   0  0  0  0  0  0  0  0  0  0  0  0
    1.1650    6.8711   -0.0000 C   0  0  0  0  0  0  0  0  0  0  0  0
  1  2  1  0  0  0  0
  2  3  2  0  0  0  0
  2  4  1  0  0  0  0
  3  5  1  0  0  0  0
  4  6  2  0  0  0  0
  5  7  2  0  0  0  0
  7  8  1  0  0  0  0
  8  9  2  0  0  0  0
  8 10  1  0  0  0  0
  9 11  1  0  0  0  0
 10 12  1  0  0  0  0
 11 13  2  0  0  0  0
 11 14  1  0  0  0  0
 12 15  1  0  0  0  0
 12 16  1  0  0  0  0
 13 17  1  0  0  0  0
 14 18  2  0  0  0  0
 15 19  2  0  0  0  0
 16 20  2  0  0  0  0
 17 21  2  0  0  0  0
  6  7  1  0  0  0  0
 18 21  1  0  0  0  0
 19 20  1  0  0  0  0
M  END
>  <MolRegNo>
2432885

>  <m>
=

>  <Value>
125

>  <Unit>
nM

>  <Type>
Ki

>  <pValue>
6.9

>  <Ligand Efficiency>
0.45

>  <Binding Efficiency>
20.29

>  <Surface Efficiency>
22.48

>  <Assay Index>
1255696

>  <Assay Category>


>  <Assay Organism>
Homo sapiens

>  <Target ID>
65

>  <Target Name>
Cytochrome P450 19A1

>  <Target Organism>
Homo sapiens

>  <Target Description>
Target is a single protein chain

>  <Sequence Accession>
P11511

>  <Reference>
Bioorg Med Chem Lett 29 (11), 1395-1398 (2019)

>  <Pubmed ID>
30952594

>  <DOI>
10.1016/j.bmcl.2019.03.033

$$$$
2360526
Actelion Java MolfileCreator 1.0

 22 24  0  0  0  0  0  0  0  0999 V2000
    0.0000   -0.0000   -0.0000 Cl  0  0  0  0  0  0  0  0  0  0  0  0
    1.2834    0.7605   -0.0000 C   0  0  0  0  0  0  0  0  0  0  0  0
    1.2715    2.2698   -0.0000 C   0  0  0  0  0  0  0  0  0  0  0  0
    2.5787    0.0238   -0.0000 C   0  0  0  0  0  0  0  0  0  0  0  0
    2.5550    3.0303   -0.0000 C   0  0  0  0  0  0  0  0  0  0  0  0
    3.8621    0.7843   -0.0000 C   0  0  0  0  0  0  0  0  0  0  0  0
    3.8384    2.2816   -0.0000 C   0  0  0  0  0  0  0  0  0  0  0  0
    5.1218    3.0422   -0.0000 C   0  0  0  0  0  0  0  0  0  0  0  0
    5.1099    4.5514   -0.0000 C   0  0  0  0  0  0  0  0  0  0  0  0
    6.4052    2.3054   -0.0000 C   0  0  0  0  0  0  0  0  0  0  0  0
    3.8027    5.3119   -0.0000 C   0  0  0  0  0  0  0  0  0  0  0  0
    6.3933    0.8200   -0.0000 N   0  0  0  0  0  0  0  0  0  0  0  0
    2.4837    4.5752   -0.0000 C   0  0  0  0  0  0  0  0  0  0  0  0
    3.7908    6.8330   -0.0000 C   0  0  0  0  0  0  0  0  0  0  0  0
    7.6055   -0.0475   -0.0000 N   0  0  0  0  0  0  0  0  0  0  0  0
    5.1812   -0.0594   -0.0000 C   0  0  0  0  0  0  0  0  0  0  0  0
    1.1765    5.3357   -0.0000 C   0  0  0  0  0  0  0  0  0  0  0  0
    2.4837    7.5936   -0.0000 C   0  0  0  0  0  0  0  0  0  0  0  0
    7.1301   -1.4617   -0.0000 N   0  0  0  0  0  0  0  0  0  0  0  0
    5.6328   -1.4736   -0.0000 C   0  0  0  0  0  0  0  0  0  0  0  0
    1.1646    6.8568   -0.0000 C   0  0  0  0  0  0  0  0  0  0  0  0
   -0.1426    7.6173   -0.0000 Cl  0  0  0  0  0  0  0  0  0  0  0  0
  1  2  1  0  0  0  0
  2  3  2  0  0  0  0
  2  4  1  0  0  0  0
  3  5  1  0  0  0  0
  4  6  2  0  0  0  0
  5  7  2  0  0  0  0
  7  8  1  0  0  0  0
  8  9  2  0  0  0  0
  8 10  1  0  0  0  0
  9 11  1  0  0  0  0
 10 12  1  0  0  0  0
 11 13  2  0  0  0  0
 11 14  1  0  0  0  0
 12 15  1  0  0  0  0
 12 16  1  0  0  0  0
 13 17  1  0  0  0  0
 14 18  2  0  0  0  0
 15 19  2  0  0  0  0
 16 20  2  0  0  0  0
 17 21  2  0  0  0  0
 21 22  1  0  0  0  0
  6  7  1  0  0  0  0
 18 21  1  0  0  0  0
 19 20  1  0  0  0  0
M  END
>  <MolRegNo>
2360526

>  <m>
=

>  <Value>
97

>  <Unit>
nM

>  <Type>
Ki

>  <pValue>
7.01

>  <Ligand Efficiency>
0.44

>  <Binding Efficiency>
21.24

>  <Surface Efficiency>
22.84

>  <Assay Index>
1255696

>  <Assay Category>


>  <Assay Organism>
Homo sapiens

>  <Target ID>
65

>  <Target Name>
Cytochrome P450 19A1

>  <Target Organism>
Homo sapiens

>  <Target Description>
Target is a single protein chain

>  <Sequence Accession>
P11511

>  <Reference>
Bioorg Med Chem Lett 29 (11), 1395-1398 (2019)

>  <Pubmed ID>
30952594

>  <DOI>
10.1016/j.bmcl.2019.03.033

$$$$
2375406
Actelion Java MolfileCreator 1.0

 21 23  0  0  0  0  0  0  0  0999 V2000
    0.0000   -0.0000   -0.0000 Cl  0  0  0  0  0  0  0  0  0  0  0  0
    1.2841    0.7609   -0.0000 C   0  0  0  0  0  0  0  0  0  0  0  0
    1.2722    2.2709   -0.0000 C   0  0  0  0  0  0  0  0  0  0  0  0
    2.5801    0.0238   -0.0000 C   0  0  0  0  0  0  0  0  0  0  0  0
    2.5563    3.0319   -0.0000 C   0  0  0  0  0  0  0  0  0  0  0  0
    3.8642    0.7966   -0.0000 C   0  0  0  0  0  0  0  0  0  0  0  0
    3.8404    2.2828   -0.0000 C   0  0  0  0  0  0  0  0  0  0  0  0
    5.1245    3.0438   -0.0000 C   0  0  0  0  0  0  0  0  0  0  0  0
    5.1126    4.5538   -0.0000 C   0  0  0  0  0  0  0  0  0  0  0  0
    6.4086    2.3066   -0.0000 C   0  0  0  0  0  0  0  0  0  0  0  0
    3.8047    5.3147   -0.0000 C   0  0  0  0  0  0  0  0  0  0  0  0
    6.3967    0.8204   -0.0000 N   0  0  0  0  0  0  0  0  0  0  0  0
    2.4850    4.5776   -0.0000 C   0  0  0  0  0  0  0  0  0  0  0  0
    3.7928    6.8366   -0.0000 C   0  0  0  0  0  0  0  0  0  0  0  0
    7.6095   -0.0476   -0.0000 N   0  0  0  0  0  0  0  0  0  0  0  0
    5.1839   -0.0594   -0.0000 C   0  0  0  0  0  0  0  0  0  0  0  0
    1.1771    5.3385   -0.0000 C   0  0  0  0  0  0  0  0  0  0  0  0
    2.4850    7.5976   -0.0000 C   0  0  0  0  0  0  0  0  0  0  0  0
    7.1339   -1.4624   -0.0000 N   0  0  0  0  0  0  0  0  0  0  0  0
    5.6358   -1.4743   -0.0000 C   0  0  0  0  0  0  0  0  0  0  0  0
    1.1652    6.8604   -0.0000 C   0  0  0  0  0  0  0  0  0  0  0  0
  1  2  1  0  0  0  0
  2  3  2  0  0  0  0
  2  4  1  0  0  0  0
  3  5  1  0  0  0  0
  4  6  2  0  0  0  0
  5  7  2  0  0  0  0
  7  8  1  0  0  0  0
  8  9  2  0  0  0  0
  8 10  1  0  0  0  0
  9 11  1  0  0  0  0
 10 12  1  0  0  0  0
 11 13  2  0  0  0  0
 11 14  1  0  0  0  0
 12 15  1  0  0  0  0
 12 16  1  0  0  0  0
 13 17  1  0  0  0  0
 14 18  2  0  0  0  0
 15 19  2  0  0  0  0
 16 20  2  0  0  0  0
 17 21  2  0  0  0  0
  6  7  1  0  0  0  0
 18 21  1  0  0  0  0
 19 20  1  0  0  0  0
M  END
>  <MolRegNo>
2375406

>  <m>
=

>  <Value>
81

>  <Unit>
nM

>  <Type>
Ki

>  <pValue>
7.09

>  <Ligand Efficiency>
0.46

>  <Binding Efficiency>
23.98

>  <Surface Efficiency>
23.09

>  <Assay Index>
1255696

>  <Assay Category>


>  <Assay Organism>
Homo sapiens

>  <Target ID>
65

>  <Target Name>
Cytochrome P450 19A1

>  <Target Organism>
Homo sapiens

>  <Target Description>
Target is a single protein chain

>  <Sequence Accession>
P11511

>  <Reference>
Bioorg Med Chem Lett 29 (11), 1395-1398 (2019)

>  <Pubmed ID>
30952594

>  <DOI>
10.1016/j.bmcl.2019.03.033

$$$$
2361539
Actelion Java MolfileCreator 1.0

 20 22  0  0  0  0  0  0  0  0999 V2000
    0.0000   -0.0000   -0.0000 N   0  0  0  0  0  0  0  0  0  0  0  0
   -0.4733   -1.4080   -0.0000 N   0  0  0  0  0  0  0  0  0  0  0  0
   -1.2305    0.8874   -0.0000 N   0  0  0  0  0  0  0  0  0  0  0  0
   -1.9759   -1.3962   -0.0000 C   0  0  0  0  0  0  0  0  0  0  0  0
   -2.4374    0.0118   -0.0000 C   0  0  0  0  0  0  0  0  0  0  0  0
   -1.2424    2.3900   -0.0000 C   0  0  0  0  0  0  0  0  0  0  0  0
   -2.5439    3.1473   -0.0000 C   0  0  0  0  0  0  0  0  0  0  0  0
   -3.8454    2.4137   -0.0000 C   0  0  0  0  0  0  0  0  0  0  0  0
   -2.5557    4.6499   -0.0000 C   0  0  0  0  0  0  0  0  0  0  0  0
   -5.1469    3.1710   -0.0000 C   0  0  0  0  0  0  0  0  0  0  0  0
   -3.8454    0.9466   -0.0000 C   0  0  0  0  0  0  0  0  0  0  0  0
   -3.8572    5.4072   -0.0000 C   0  0  0  0  0  0  0  0  0  0  0  0
   -6.4484    2.4374   -0.0000 C   0  0  0  0  0  0  0  0  0  0  0  0
   -5.1469    0.2011   -0.0000 C   0  0  0  0  0  0  0  0  0  0  0  0
   -5.1706    4.6736   -0.0000 C   0  0  0  0  0  0  0  0  0  0  0  0
   -3.8690    6.9217   -0.0000 C   0  0  0  0  0  0  0  0  0  0  0  0
   -6.4602    0.9584   -0.0000 C   0  0  0  0  0  0  0  0  0  0  0  0
   -6.4721    5.4309   -0.0000 C   0  0  0  0  0  0  0  0  0  0  0  0
   -5.1706    7.6789   -0.0000 C   0  0  0  0  0  0  0  0  0  0  0  0
   -6.4839    6.9453   -0.0000 C   0  0  0  0  0  0  0  0  0  0  0  0
  1  2  2  0  0  0  0
  1  3  1  0  0  0  0
  2  4  1  0  0  0  0
  3  5  1  0  0  0  0
  3  6  1  0  0  0  0
  6  7  1  0  0  0  0
  7  8  1  0  0  0  0
  7  9  2  0  0  0  0
  8 10  2  0  0  0  0
  8 11  1  0  0  0  0
  9 12  1  0  0  0  0
 10 13  1  0  0  0  0
 11 14  2  0  0  0  0
 12 15  2  0  0  0  0
 12 16  1  0  0  0  0
 13 17  2  0  0  0  0
 15 18  1  0  0  0  0
 16 19  2  0  0  0  0
 18 20  2  0  0  0  0
  4  5  2  0  0  0  0
 14 17  1  0  0  0  0
 19 20  1  0  0  0  0
M  END
>  <MolRegNo>
2361539

>  <m>
=

>  <Value>
180

>  <Unit>
nM

>  <Type>
Ki

>  <pValue>
6.75

>  <Ligand Efficiency>
0.46

>  <Binding Efficiency>
25.81

>  <Surface Efficiency>
21.96

>  <Assay Index>
1255696

>  <Assay Category>


>  <Assay Organism>
Homo sapiens

>  <Target ID>
65

>  <Target Name>
Cytochrome P450 19A1

>  <Target Organism>
Homo sapiens

>  <Target Description>
Target is a single protein chain

>  <Sequence Accession>
P11511

>  <Reference>
Bioorg Med Chem Lett 29 (11), 1395-1398 (2019)

>  <Pubmed ID>
30952594

>  <DOI>
10.1016/j.bmcl.2019.03.033

$$$$
318390
Actelion Java MolfileCreator 1.0

 23 24  0  0  0  0  0  0  0  0999 V2000
    0.0000   -0.0000   -0.0000 O   0  0  0  0  0  0  0  0  0  0  0  0
    1.2887    0.7566   -0.0000 C   0  0  0  0  0  0  0  0  0  0  0  0
    1.2768    2.2699   -0.0000 C   0  0  0  0  0  0  0  0  0  0  0  0
    2.5773    0.0236   -0.0000 C   0  0  0  0  0  0  0  0  0  0  0  0
    2.5655    3.0266   -0.0000 C   0  0  0  0  0  0  0  0  0  0  0  0
   -0.0355    3.0266   -0.0000 C   0  0  0  0  0  0  0  0  0  0  0  0
    3.8660    0.7803   -0.0000 C   0  0  0  0  0  0  0  0  0  0  0  0
    2.5537    4.5399   -0.0000 O   0  0  0  0  0  0  0  0  0  0  0  0
    3.8542    2.2936   -0.0000 C   0  0  0  0  0  0  0  0  0  0  0  0
   -1.3478    2.2936   -0.0000 C   0  0  0  0  0  0  0  0  0  0  0  0
   -0.0473    4.5399   -0.0000 C   0  0  0  0  0  0  0  0  0  0  0  0
    5.1547    0.0473   -0.0000 C   0  0  0  0  0  0  0  0  0  0  0  0
   -2.6601    3.0502   -0.0000 C   0  0  0  0  0  0  0  0  0  0  0  0
    1.2414    5.2965   -0.0000 C   0  0  0  0  0  0  0  0  0  0  0  0
   -1.3596    5.2965   -0.0000 C   0  0  0  0  0  0  0  0  0  0  0  0
    6.4433    0.8039   -0.0000 C   0  0  0  0  0  0  0  0  0  0  0  0
   -2.6719    4.5635   -0.0000 C   0  0  0  0  0  0  0  0  0  0  0  0
   -3.9724    2.3172   -0.0000 C   0  0  0  0  0  0  0  0  0  0  0  0
    2.7192    5.4620   -0.0000 C   0  0  0  0  0  0  0  0  0  0  0  0
    1.2296    6.8098   -0.0000 C   0  0  0  0  0  0  0  0  0  0  0  0
    7.7320    0.0709   -0.0000 C   0  0  0  0  0  0  0  0  0  0  0  0
    9.0206    0.8276   -0.0000 C   0  0  0  0  0  0  0  0  0  0  0  0
   10.3093    0.0946   -0.0000 C   0  0  0  0  0  0  0  0  0  0  0  0
  1  2  1  0  0  0  0
  2  3  2  0  0  0  0
  2  4  1  0  0  0  0
  3  5  1  0  0  0  0
  6  3  1  6  0  0  0
  4  7  2  0  0  0  0
  5  8  1  0  0  0  0
  5  9  2  0  0  0  0
  6 10  1  0  0  0  0
  6 11  1  0  0  0  0
  7 12  1  0  0  0  0
 10 13  2  0  0  0  0
 11 14  1  1  0  0  0
 11 15  1  0  0  0  0
 12 16  1  0  0  0  0
 13 17  1  0  0  0  0
 13 18  1  0  0  0  0
 14 19  2  0  0  0  0
 14 20  1  0  0  0  0
 16 21  1  0  0  0  0
 21 22  1  0  0  0  0
 22 23  1  0  0  0  0
  7  9  1  0  0  0  0
 15 17  1  0  0  0  0
M  END
>  <MolRegNo>
318390

>  <m>
=

>  <Value>
2420

>  <Unit>
nM

>  <Type>
Ki

>  <pValue>
5.62

>  <Ligand Efficiency>
0

>  <Binding Efficiency>
0

>  <Surface Efficiency>
0

>  <Assay Index>
1398079

>  <Assay Category>


>  <Assay Organism>
Homo sapiens

>  <Target ID>
11365

>  <Target Name>
Cytochrome P450 2D6

>  <Target Organism>
Homo sapiens

>  <Target Description>
Target is a single protein chain

>  <Sequence Accession>
P10635

>  <Reference>
J Med Chem 63 (21), 12137-12155 (2020)

>  <Pubmed ID>
32804502

>  <DOI>
10.1021/acs.jmedchem.0c00724

$$$$
92231
Actelion Java MolfileCreator 1.0

 29 32  0  0  1  0  0  0  0  0999 V2000
    0.0000   -0.0000   -0.0000 O   0  0  0  0  0  0  0  0  0  0  0  0
   -0.0198    1.4852   -0.0000 C   0  0  0  0  0  0  0  0  0  0  0  0
   -1.3267    2.2376   -0.0000 O   0  0  0  0  0  0  0  0  0  0  0  0
    1.2079    2.2574   -0.0000 C   0  0  0  0  0  0  0  0  0  0  0  0
   -2.6139    1.5248   -0.0000 C   0  0  0  0  0  0  0  0  0  0  0  0
    2.4555    1.5248   -0.0000 C   0  0  0  0  0  0  0  0  0  0  0  0
    1.1881    3.7228   -0.0000 C   0  0  0  0  0  0  0  0  0  0  0  0
    3.6832    2.2970   -0.0000 O   0  0  0  0  0  0  0  0  0  0  0  0
    2.4356    4.4555   -0.0000 C   0  0  0  0  0  0  0  0  0  0  0  0
   -0.0792    4.4555   -0.0000 C   0  0  0  0  0  0  0  0  0  0  0  0
    4.9505    1.6238   -0.0000 C   0  0  0  0  0  0  0  0  0  0  0  0
    2.4158    5.9604   -0.0000 C   0  0  0  0  0  0  0  0  0  0  0  0
    3.6634    3.7624   -0.0000 C   0  0  0  0  0  0  0  0  0  0  0  0
   -0.0990    5.9604   -0.0000 C   0  0  0  0  0  0  0  0  0  0  0  0
    1.1287    6.6931   -0.0000 N   0  0  0  0  0  0  0  0  0  0  0  0
    4.9109    4.5149   -0.0000 C   0  0  0  0  0  0  0  0  0  0  0  0
   -1.4059    6.6931   -0.0000 C   0  0  0  0  0  0  0  0  0  0  0  0
    1.1089    8.1782   -0.0000 C   0  0  0  0  0  0  0  0  0  0  0  0
   -2.6931    6.0000   -0.0000 N   0  0  0  0  0  0  0  0  0  0  0  0
   -1.4257    8.1782   -0.0000 C   0  0  0  0  0  0  0  0  0  0  0  0
   -0.1584    8.9109   -0.0000 C   0  0  0  0  0  0  0  0  0  0  0  0
   -3.9604    6.7327   -0.0000 C   0  0  0  0  0  0  0  0  0  0  0  0
   -3.9604    8.1980   -0.0000 C   0  0  0  0  0  0  0  0  0  0  0  0
   -5.2277    6.0396   -0.0000 C   0  0  0  0  0  0  0  0  0  0  0  0
   -5.2277    8.9307   -0.0000 C   0  0  0  0  0  0  0  0  0  0  0  0
   -6.5347    6.7723   -0.0000 C   0  0  0  0  0  0  0  0  0  0  0  0
   -5.2475   10.4159   -0.0000 O   0  0  0  0  0  0  0  0  0  0  0  0
   -6.5347    8.2376   -0.0000 C   0  0  0  0  0  0  0  0  0  0  0  0
   -4.0198   11.1485   -0.0000 C   0  0  0  0  0  0  0  0  0  0  0  0
  1  2  2  0  0  0  0
  2  3  1  0  0  0  0
  2  4  1  0  0  0  0
  3  5  1  0  0  0  0
  4  6  2  0  0  0  0
  7  4  1  1  0  0  0
  6  8  1  0  0  0  0
  7  9  1  0  0  0  0
  7 10  1  0  0  0  0
  8 11  1  0  0  0  0
  9 12  1  0  0  0  0
  9 13  1  1  0  0  0
 10 14  1  0  0  0  0
 12 15  1  0  0  0  0
 13 16  1  0  0  0  0
 14 17  1  0  0  0  0
 15 18  1  0  0  0  0
 17 19  1  0  0  0  0
 17 20  2  0  0  0  0
 18 21  1  0  0  0  0
 19 22  1  0  0  0  0
 20 23  1  0  0  0  0
 22 24  1  0  0  0  0
 23 25  1  0  0  0  0
 24 26  2  0  0  0  0
 25 27  1  0  0  0  0
 25 28  2  0  0  0  0
 27 29  1  0  0  0  0
 14 15  1  1  0  0  0
 20 21  1  0  0  0  0
 22 23  2  0  0  0  0
 26 28  1  0  0  0  0
M  END
>  <MolRegNo>
92231

>  <m>
=

>  <Value>
1100

>  <Unit>
nM

>  <Type>
Ki

>  <pValue>
5.96

>  <Ligand Efficiency>
0

>  <Binding Efficiency>
0

>  <Surface Efficiency>
0

>  <Assay Index>
1479365

>  <Assay Category>


>  <Assay Organism>
Homo sapiens

>  <Target ID>
11365

>  <Target Name>
Cytochrome P450 2D6

>  <Target Organism>
Homo sapiens

>  <Target Description>
Target is a single protein chain

>  <Sequence Accession>
P10635

>  <Reference>
J Nat Prod 84 (4.0), 1104-1112 (2021)

>  <Pubmed ID>
33620222

>  <DOI>
10.1021/acs.jnatprod.0c01163

$$$$
92230
Actelion Java MolfileCreator 1.0

 27 30  0  0  0  0  0  0  0  0999 V2000
    0.0000   -0.0000   -0.0000 O   0  0  0  0  0  0  0  0  0  0  0  0
    1.4929    0.1659   -0.0000 C   0  0  0  0  0  0  0  0  0  0  0  0
    2.3578   -1.0426   -0.0000 O   0  0  0  0  0  0  0  0  0  0  0  0
    2.0971    1.5521   -0.0000 C   0  0  0  0  0  0  0  0  0  0  0  0
    1.7298   -2.4052   -0.0000 C   0  0  0  0  0  0  0  0  0  0  0  0
    3.5782    1.7061   -0.0000 C   0  0  0  0  0  0  0  0  0  0  0  0
    1.2085    2.7843   -0.0000 C   0  0  0  0  0  0  0  0  0  0  0  0
    4.1824    3.0924   -0.0000 O   0  0  0  0  0  0  0  0  0  0  0  0
    1.8009    4.1469   -0.0000 C   0  0  0  0  0  0  0  0  0  0  0  0
   -0.2725    2.6540   -0.0000 C   0  0  0  0  0  0  0  0  0  0  0  0
    5.6635    3.2583   -0.0000 C   0  0  0  0  0  0  0  0  0  0  0  0
    0.9242    5.3672   -0.0000 C   0  0  0  0  0  0  0  0  0  0  0  0
    3.2820    4.3128   -0.0000 C   0  0  0  0  0  0  0  0  0  0  0  0
   -1.1493    3.8625   -0.0000 C   0  0  0  0  0  0  0  0  0  0  0  0
   -0.5569    5.2251   -0.0000 N   0  0  0  0  0  0  0  0  0  0  0  0
    3.8862    5.6990   -0.0000 C   0  0  0  0  0  0  0  0  0  0  0  0
   -2.6303    3.7085   -0.0000 C   0  0  0  0  0  0  0  0  0  0  0  0
   -1.4455    6.4336   -0.0000 C   0  0  0  0  0  0  0  0  0  0  0  0
   -3.5071    2.5000   -0.0000 N   0  0  0  0  0  0  0  0  0  0  0  0
   -3.5189    4.9170   -0.0000 C   0  0  0  0  0  0  0  0  0  0  0  0
   -2.9384    6.2914   -0.0000 C   0  0  0  0  0  0  0  0  0  0  0  0
   -4.9526    2.9739   -0.0000 C   0  0  0  0  0  0  0  0  0  0  0  0
   -4.9526    4.4668   -0.0000 C   0  0  0  0  0  0  0  0  0  0  0  0
   -6.2677    2.2393   -0.0000 C   0  0  0  0  0  0  0  0  0  0  0  0
   -6.2677    5.2369   -0.0000 C   0  0  0  0  0  0  0  0  0  0  0  0
   -7.5829    2.9976   -0.0000 C   0  0  0  0  0  0  0  0  0  0  0  0
   -7.5829    4.4905   -0.0000 C   0  0  0  0  0  0  0  0  0  0  0  0
  1  2  2  0  0  0  0
  2  3  1  0  0  0  0
  2  4  1  0  0  0  0
  3  5  1  0  0  0  0
  4  6  2  0  0  0  0
  7  4  1  1  0  0  0
  6  8  1  0  0  0  0
  7  9  1  0  0  0  0
  7 10  1  0  0  0  0
  8 11  1  0  0  0  0
  9 12  1  0  0  0  0
  9 13  1  1  0  0  0
 10 14  1  0  0  0  0
 12 15  1  0  0  0  0
 13 16  1  0  0  0  0
 14 17  1  0  0  0  0
 15 18  1  0  0  0  0
 17 19  1  0  0  0  0
 17 20  2  0  0  0  0
 18 21  1  0  0  0  0
 19 22  1  0  0  0  0
 20 23  1  0  0  0  0
 22 24  1  0  0  0  0
 23 25  1  0  0  0  0
 24 26  2  0  0  0  0
 25 27  2  0  0  0  0
 14 15  1  1  0  0  0
 20 21  1  0  0  0  0
 22 23  2  0  0  0  0
 26 27  1  0  0  0  0
M  END
>  <MolRegNo>
92230

>  <m>
=

>  <Value>
2800

>  <Unit>
nM

>  <Type>
Ki

>  <pValue>
5.55

>  <Ligand Efficiency>
0

>  <Binding Efficiency>
0

>  <Surface Efficiency>
0

>  <Assay Index>
1479365

>  <Assay Category>


>  <Assay Organism>
Homo sapiens

>  <Target ID>
11365

>  <Target Name>
Cytochrome P450 2D6

>  <Target Organism>
Homo sapiens

>  <Target Description>
Target is a single protein chain

>  <Sequence Accession>
P10635

>  <Reference>
J Nat Prod 84 (4.0), 1104-1112 (2021)

>  <Pubmed ID>
33620222

>  <DOI>
10.1021/acs.jnatprod.0c01163

$$$$
